*SPEF "IEEE 1481-1998"
*DESIGN "IIR_FILTER"
*DATE "Thu Nov 19 00:02:32 2020"
*VENDOR "Cadence Design Systems, Inc."
*PROGRAM "Innovus"
*VERSION "17.11-s080_1"
*DESIGN_FLOW "COUPLING C" "PIN_CAP NONE" "NAME_SCOPE LOCAL"
*DIVIDER /
*DELIMITER :
*BUS_DELIMITER []
*T_UNIT 1 NS
*C_UNIT 1 PF
*R_UNIT 1 OHM
*L_UNIT 1 HENRY

// MMMC spef file for corner 'my_rc'

*NAME_MAP

*1 din[8]
*2 din[7]
*3 din[6]
*4 din[5]
*5 din[4]
*6 din[3]
*7 din[2]
*8 din[1]
*9 din[0]
*10 b0[8]
*11 b0[7]
*12 b0[6]
*13 b0[5]
*14 b0[4]
*15 b0[3]
*16 b0[2]
*17 b0[1]
*18 b0[0]
*19 b1[8]
*20 b1[7]
*21 b1[6]
*22 b1[5]
*23 b1[4]
*24 b1[3]
*25 b1[2]
*26 b1[1]
*27 b1[0]
*28 b2[8]
*29 b2[7]
*30 b2[6]
*31 b2[5]
*32 b2[4]
*33 b2[3]
*34 b2[2]
*35 b2[1]
*36 b2[0]
*37 a1[8]
*38 a1[7]
*39 a1[6]
*40 a1[5]
*41 a1[4]
*42 a1[3]
*43 a1[2]
*44 a1[1]
*45 a1[0]
*46 a2[8]
*47 a2[7]
*48 a2[6]
*49 a2[5]
*50 a2[4]
*51 a2[3]
*52 a2[2]
*53 a2[1]
*54 a2[0]
*55 clk
*56 vin
*57 rst_n
*58 dout[8]
*59 dout[7]
*60 dout[6]
*61 dout[5]
*62 dout[4]
*63 dout[3]
*64 dout[2]
*65 dout[1]
*66 dout[0]
*67 vout
*68 FE_OFN23_ff_mult0_mult_17_n315
*69 FE_OFN22_fb_mult0_mult_17_n312
*70 FE_OFN21_ff_mult1_mult_17_n312
*71 FE_OFN20_ff_mult1_mult_17_n315
*72 FE_OFN19_ff_mult0_mult_17_n312
*73 FE_OFN18_fb_mult0_mult_17_n315
*74 FE_OFN17_fb_mult1_mult_17_n308
*75 FE_OFN16_fb_mult1_mult_17_n311
*76 FE_OFN15_rst_n
*77 FE_OFN14_rst_n
*78 FE_OFN13_vin
*79 FE_OFN12_vin
*80 FE_OFN11_y_mult_mult_17_n307
*81 FE_OFN10_sw1_1
*82 FE_OFN9_sw1_5
*83 FE_OFN8_sw1_7
*84 FE_OFN7_y_mult_mult_17_n310
*85 FE_OFN6_sw1_8
*86 FE_OFN5_sw0_7
*87 FE_OFN4_sw0_8
*88 FE_OFN3_sw0_5
*89 FE_OFN2_sw0_1
*90 FE_OFN1_sw1_3
*91 FE_OFN0_sw0_3
*92 FE_DBTN8_sw0_0
*93 FE_DBTN7_sw0_3
*94 FE_DBTN6_sw0_5
*95 FE_DBTN5_sw0_7
*96 FE_DBTN4_sw1_0
*97 FE_DBTN3_sw1_3
*98 FE_DBTN2_sw1_5
*99 FE_DBTN1_sw1_7
*100 FE_DBTN0_fb_5
*101 vout_tmp
*102 din_reg_n27
*103 din_reg_n26
*104 din_reg_n25
*105 din_reg_n24
*106 din_reg_n23
*107 din_reg_n22
*108 din_reg_n21
*109 din_reg_n20
*110 din_reg_n19
*111 din_reg_n18
*112 din_reg_n17
*113 din_reg_n16
*114 din_reg_n15
*115 din_reg_n14
*116 din_reg_n13
*117 din_reg_n12
*118 din_reg_n11
*119 din_reg_n10
*120 din_reg_n9
*121 din_reg_n8
*122 din_reg_n7
*123 din_reg_n6
*124 din_reg_n5
*125 din_reg_n4
*126 din_reg_n3
*127 din_reg_n2
*128 din_reg_n1
*129 a1_reg_n56
*130 a1_reg_n55
*131 a1_reg_n54
*132 a1_reg_n53
*133 a1_reg_n52
*134 a1_reg_n51
*135 a1_reg_n50
*136 a1_reg_n49
*137 a1_reg_n48
*138 a1_reg_n47
*139 a1_reg_n46
*140 a1_reg_n45
*141 a1_reg_n44
*142 a1_reg_n43
*143 a1_reg_n42
*144 a1_reg_n41
*145 a1_reg_n40
*146 a1_reg_n39
*147 a1_reg_n38
*148 a1_reg_n37
*149 a1_reg_n36
*150 a1_reg_n35
*151 a1_reg_n34
*152 a1_reg_n33
*153 a1_reg_n32
*154 a1_reg_n31
*155 a1_reg_n30
*156 a2_reg_n56
*157 a2_reg_n55
*158 a2_reg_n54
*159 a2_reg_n53
*160 a2_reg_n52
*161 a2_reg_n51
*162 a2_reg_n50
*163 a2_reg_n49
*164 a2_reg_n48
*165 a2_reg_n47
*166 a2_reg_n46
*167 a2_reg_n45
*168 a2_reg_n44
*169 a2_reg_n43
*170 a2_reg_n42
*171 a2_reg_n41
*172 a2_reg_n40
*173 a2_reg_n39
*174 a2_reg_n38
*175 a2_reg_n37
*176 a2_reg_n36
*177 a2_reg_n35
*178 a2_reg_n34
*179 a2_reg_n33
*180 a2_reg_n32
*181 a2_reg_n31
*182 a2_reg_n30
*183 b0_reg_n56
*184 b0_reg_n55
*185 b0_reg_n54
*186 b0_reg_n53
*187 b0_reg_n52
*188 b0_reg_n51
*189 b0_reg_n50
*190 b0_reg_n49
*191 b0_reg_n48
*192 b0_reg_n47
*193 b0_reg_n46
*194 b0_reg_n45
*195 b0_reg_n44
*196 b0_reg_n43
*197 b0_reg_n42
*198 b0_reg_n41
*199 b0_reg_n40
*200 b0_reg_n39
*201 b0_reg_n38
*202 b0_reg_n37
*203 b0_reg_n36
*204 b0_reg_n35
*205 b0_reg_n34
*206 b0_reg_n33
*207 b0_reg_n32
*208 b0_reg_n31
*209 b0_reg_n30
*210 b1_reg_n56
*211 b1_reg_n55
*212 b1_reg_n54
*213 b1_reg_n53
*214 b1_reg_n52
*215 b1_reg_n51
*216 b1_reg_n50
*217 b1_reg_n49
*218 b1_reg_n48
*219 b1_reg_n47
*220 b1_reg_n46
*221 b1_reg_n45
*222 b1_reg_n44
*223 b1_reg_n43
*224 b1_reg_n42
*225 b1_reg_n41
*226 b1_reg_n40
*227 b1_reg_n39
*228 b1_reg_n38
*229 b1_reg_n37
*230 b1_reg_n36
*231 b1_reg_n35
*232 b1_reg_n34
*233 b1_reg_n33
*234 b1_reg_n32
*235 b1_reg_n31
*236 b1_reg_n30
*237 b2_reg_n56
*238 b2_reg_n55
*239 b2_reg_n54
*240 b2_reg_n53
*241 b2_reg_n52
*242 b2_reg_n51
*243 b2_reg_n50
*244 b2_reg_n49
*245 b2_reg_n48
*246 b2_reg_n47
*247 b2_reg_n46
*248 b2_reg_n45
*249 b2_reg_n44
*250 b2_reg_n43
*251 b2_reg_n42
*252 b2_reg_n41
*253 b2_reg_n40
*254 b2_reg_n39
*255 b2_reg_n38
*256 b2_reg_n37
*257 b2_reg_n36
*258 b2_reg_n35
*259 b2_reg_n34
*260 b2_reg_n33
*261 b2_reg_n32
*262 b2_reg_n31
*263 b2_reg_n30
*264 w_1_reg_n56
*265 w_1_reg_n55
*266 w_1_reg_n54
*267 w_1_reg_n53
*268 w_1_reg_n52
*269 w_1_reg_n51
*270 w_1_reg_n50
*271 w_1_reg_n49
*272 w_1_reg_n48
*273 w_1_reg_n47
*274 w_1_reg_n46
*275 w_1_reg_n45
*276 w_1_reg_n44
*277 w_1_reg_n43
*278 w_1_reg_n42
*279 w_1_reg_n41
*280 w_1_reg_n40
*281 w_1_reg_n39
*282 w_1_reg_n38
*283 w_1_reg_n37
*284 w_1_reg_n36
*285 w_1_reg_n35
*286 w_1_reg_n34
*287 w_1_reg_n33
*288 w_1_reg_n32
*289 w_1_reg_n31
*290 w_1_reg_n30
*291 w_2_reg_n56
*292 w_2_reg_n55
*293 w_2_reg_n54
*294 w_2_reg_n53
*295 w_2_reg_n52
*296 w_2_reg_n51
*297 w_2_reg_n50
*298 w_2_reg_n49
*299 w_2_reg_n48
*300 w_2_reg_n47
*301 w_2_reg_n46
*302 w_2_reg_n45
*303 w_2_reg_n44
*304 w_2_reg_n43
*305 w_2_reg_n42
*306 w_2_reg_n41
*307 w_2_reg_n40
*308 w_2_reg_n39
*309 w_2_reg_n38
*310 w_2_reg_n37
*311 w_2_reg_n36
*312 w_2_reg_n35
*313 w_2_reg_n34
*314 w_2_reg_n33
*315 w_2_reg_n32
*316 w_2_reg_n31
*317 w_2_reg_n30
*318 fb_mult0_fract_product_0_
*319 fb_mult0_mult_17_n382
*320 fb_mult0_mult_17_n381
*321 fb_mult0_mult_17_n380
*322 fb_mult0_mult_17_n379
*323 fb_mult0_mult_17_n378
*324 fb_mult0_mult_17_n377
*325 fb_mult0_mult_17_n375
*326 fb_mult0_mult_17_n374
*327 fb_mult0_mult_17_n373
*328 fb_mult0_mult_17_n372
*329 fb_mult0_mult_17_n371
*330 fb_mult0_mult_17_n370
*331 fb_mult0_mult_17_n369
*332 fb_mult0_mult_17_n368
*333 fb_mult0_mult_17_n367
*334 fb_mult0_mult_17_n366
*335 fb_mult0_mult_17_n365
*336 fb_mult0_mult_17_n364
*337 fb_mult0_mult_17_n363
*338 fb_mult0_mult_17_n362
*339 fb_mult0_mult_17_n361
*340 fb_mult0_mult_17_n359
*341 fb_mult0_mult_17_n358
*342 fb_mult0_mult_17_n357
*343 fb_mult0_mult_17_n356
*344 fb_mult0_mult_17_n355
*345 fb_mult0_mult_17_n354
*346 fb_mult0_mult_17_n353
*347 fb_mult0_mult_17_n352
*348 fb_mult0_mult_17_n351
*349 fb_mult0_mult_17_n350
*350 fb_mult0_mult_17_n349
*351 fb_mult0_mult_17_n348
*352 fb_mult0_mult_17_n347
*353 fb_mult0_mult_17_n346
*354 fb_mult0_mult_17_n345
*355 fb_mult0_mult_17_n344
*356 fb_mult0_mult_17_n343
*357 fb_mult0_mult_17_n342
*358 fb_mult0_mult_17_n341
*359 fb_mult0_mult_17_n340
*360 fb_mult0_mult_17_n339
*361 fb_mult0_mult_17_n338
*362 fb_mult0_mult_17_n337
*363 fb_mult0_mult_17_n336
*364 fb_mult0_mult_17_n335
*365 fb_mult0_mult_17_n334
*366 fb_mult0_mult_17_n333
*367 fb_mult0_mult_17_n332
*368 fb_mult0_mult_17_n331
*369 fb_mult0_mult_17_n330
*370 fb_mult0_mult_17_n329
*371 fb_mult0_mult_17_n328
*372 fb_mult0_mult_17_n327
*373 fb_mult0_mult_17_n326
*374 fb_mult0_mult_17_n325
*375 fb_mult0_mult_17_n324
*376 fb_mult0_mult_17_n323
*377 fb_mult0_mult_17_n322
*378 fb_mult0_mult_17_n321
*379 fb_mult0_mult_17_n320
*380 fb_mult0_mult_17_n319
*381 fb_mult0_mult_17_n318
*382 fb_mult0_mult_17_n317
*383 fb_mult0_mult_17_n316
*384 fb_mult0_mult_17_n314
*385 fb_mult0_mult_17_n313
*386 fb_mult0_mult_17_n311
*387 fb_mult0_mult_17_n310
*388 fb_mult0_mult_17_n309
*389 fb_mult0_mult_17_n308
*390 fb_mult0_mult_17_n307
*391 fb_mult0_mult_17_n305
*392 fb_mult0_mult_17_n301
*393 fb_mult0_mult_17_n300
*394 fb_mult0_mult_17_n299
*395 fb_mult0_mult_17_n298
*396 fb_mult0_mult_17_n297
*397 fb_mult0_mult_17_n296
*398 fb_mult0_mult_17_n295
*399 fb_mult0_mult_17_n294
*400 fb_mult0_mult_17_n293
*401 fb_mult0_mult_17_n292
*402 fb_mult0_mult_17_n291
*403 fb_mult0_mult_17_n290
*404 fb_mult0_mult_17_n289
*405 fb_mult0_mult_17_n288
*406 fb_mult0_mult_17_n287
*407 fb_mult0_mult_17_n286
*408 fb_mult0_mult_17_n285
*409 fb_mult0_mult_17_n284
*410 fb_mult0_mult_17_n283
*411 fb_mult0_mult_17_n282
*412 fb_mult0_mult_17_n141
*413 fb_mult0_mult_17_n140
*414 fb_mult0_mult_17_n139
*415 fb_mult0_mult_17_n138
*416 fb_mult0_mult_17_n137
*417 fb_mult0_mult_17_n136
*418 fb_mult0_mult_17_n133
*419 fb_mult0_mult_17_n132
*420 fb_mult0_mult_17_n131
*421 fb_mult0_mult_17_n130
*422 fb_mult0_mult_17_n129
*423 fb_mult0_mult_17_n128
*424 fb_mult0_mult_17_n127
*425 fb_mult0_mult_17_n125
*426 fb_mult0_mult_17_n124
*427 fb_mult0_mult_17_n123
*428 fb_mult0_mult_17_n122
*429 fb_mult0_mult_17_n121
*430 fb_mult0_mult_17_n120
*431 fb_mult0_mult_17_n119
*432 fb_mult0_mult_17_n118
*433 fb_mult0_mult_17_n116
*434 fb_mult0_mult_17_n115
*435 fb_mult0_mult_17_n114
*436 fb_mult0_mult_17_n112
*437 fb_mult0_mult_17_n111
*438 fb_mult0_mult_17_n110
*439 fb_mult0_mult_17_n109
*440 fb_mult0_mult_17_n107
*441 fb_mult0_mult_17_n105
*442 fb_mult0_mult_17_n104
*443 fb_mult0_mult_17_n103
*444 fb_mult0_mult_17_n102
*445 fb_mult0_mult_17_n101
*446 fb_mult0_mult_17_n100
*447 fb_mult0_mult_17_n96
*448 fb_mult0_mult_17_n95
*449 fb_mult0_mult_17_n94
*450 fb_mult0_mult_17_n79
*451 fb_mult0_mult_17_n78
*452 fb_mult0_mult_17_n77
*453 fb_mult0_mult_17_n76
*454 fb_mult0_mult_17_n75
*455 fb_mult0_mult_17_n74
*456 fb_mult0_mult_17_n73
*457 fb_mult0_mult_17_n72
*458 fb_mult0_mult_17_n71
*459 fb_mult0_mult_17_n70
*460 fb_mult0_mult_17_n69
*461 fb_mult0_mult_17_n68
*462 fb_mult0_mult_17_n67
*463 fb_mult0_mult_17_n66
*464 fb_mult0_mult_17_n65
*465 fb_mult0_mult_17_n64
*466 fb_mult0_mult_17_n63
*467 fb_mult0_mult_17_n62
*468 fb_mult0_mult_17_n61
*469 fb_mult0_mult_17_n60
*470 fb_mult0_mult_17_n59
*471 fb_mult0_mult_17_n58
*472 fb_mult0_mult_17_n57
*473 fb_mult0_mult_17_n56
*474 fb_mult0_mult_17_n55
*475 fb_mult0_mult_17_n54
*476 fb_mult0_mult_17_n53
*477 fb_mult0_mult_17_n52
*478 fb_mult0_mult_17_n51
*479 fb_mult0_mult_17_n50
*480 fb_mult0_mult_17_n49
*481 fb_mult0_mult_17_n48
*482 fb_mult0_mult_17_n46
*483 fb_mult0_mult_17_n45
*484 fb_mult0_mult_17_n44
*485 fb_mult0_mult_17_n43
*486 fb_mult0_mult_17_n42
*487 fb_mult0_mult_17_n41
*488 fb_mult0_mult_17_n40
*489 fb_mult0_mult_17_n39
*490 fb_mult0_mult_17_n38
*491 fb_mult0_mult_17_n37
*492 fb_mult0_mult_17_n36
*493 fb_mult0_mult_17_n35
*494 fb_mult0_mult_17_n34
*495 fb_mult0_mult_17_n32
*496 fb_mult0_mult_17_n31
*497 fb_mult0_mult_17_n30
*498 fb_mult0_mult_17_n29
*499 fb_mult0_mult_17_n28
*500 fb_mult0_mult_17_n27
*501 fb_mult0_mult_17_n26
*502 fb_mult0_mult_17_n25
*503 fb_mult0_mult_17_n24
*504 fb_mult0_mult_17_n22
*505 fb_mult0_mult_17_n21
*506 fb_mult0_mult_17_n20
*507 fb_mult0_mult_17_n19
*508 fb_mult0_mult_17_n18
*509 fb_mult0_mult_17_n7
*510 fb_mult0_mult_17_n6
*511 fb_mult0_mult_17_n5
*512 fb_mult0_mult_17_n4
*513 fb_mult0_mult_17_n3
*514 fb_mult0_mult_17_n2
*515 fb_mult1_fract_product_0_
*516 fb_mult1_mult_17_n378
*517 fb_mult1_mult_17_n377
*518 fb_mult1_mult_17_n376
*519 fb_mult1_mult_17_n375
*520 fb_mult1_mult_17_n374
*521 fb_mult1_mult_17_n373
*522 fb_mult1_mult_17_n371
*523 fb_mult1_mult_17_n370
*524 fb_mult1_mult_17_n369
*525 fb_mult1_mult_17_n368
*526 fb_mult1_mult_17_n367
*527 fb_mult1_mult_17_n366
*528 fb_mult1_mult_17_n365
*529 fb_mult1_mult_17_n364
*530 fb_mult1_mult_17_n363
*531 fb_mult1_mult_17_n362
*532 fb_mult1_mult_17_n361
*533 fb_mult1_mult_17_n360
*534 fb_mult1_mult_17_n359
*535 fb_mult1_mult_17_n358
*536 fb_mult1_mult_17_n357
*537 fb_mult1_mult_17_n355
*538 fb_mult1_mult_17_n354
*539 fb_mult1_mult_17_n353
*540 fb_mult1_mult_17_n352
*541 fb_mult1_mult_17_n351
*542 fb_mult1_mult_17_n350
*543 fb_mult1_mult_17_n349
*544 fb_mult1_mult_17_n348
*545 fb_mult1_mult_17_n347
*546 fb_mult1_mult_17_n346
*547 fb_mult1_mult_17_n345
*548 fb_mult1_mult_17_n344
*549 fb_mult1_mult_17_n343
*550 fb_mult1_mult_17_n342
*551 fb_mult1_mult_17_n341
*552 fb_mult1_mult_17_n340
*553 fb_mult1_mult_17_n339
*554 fb_mult1_mult_17_n338
*555 fb_mult1_mult_17_n337
*556 fb_mult1_mult_17_n336
*557 fb_mult1_mult_17_n335
*558 fb_mult1_mult_17_n334
*559 fb_mult1_mult_17_n333
*560 fb_mult1_mult_17_n332
*561 fb_mult1_mult_17_n331
*562 fb_mult1_mult_17_n330
*563 fb_mult1_mult_17_n329
*564 fb_mult1_mult_17_n328
*565 fb_mult1_mult_17_n327
*566 fb_mult1_mult_17_n326
*567 fb_mult1_mult_17_n325
*568 fb_mult1_mult_17_n324
*569 fb_mult1_mult_17_n323
*570 fb_mult1_mult_17_n322
*571 fb_mult1_mult_17_n321
*572 fb_mult1_mult_17_n320
*573 fb_mult1_mult_17_n319
*574 fb_mult1_mult_17_n318
*575 fb_mult1_mult_17_n317
*576 fb_mult1_mult_17_n316
*577 fb_mult1_mult_17_n315
*578 fb_mult1_mult_17_n314
*579 fb_mult1_mult_17_n313
*580 fb_mult1_mult_17_n312
*581 fb_mult1_mult_17_n310
*582 fb_mult1_mult_17_n309
*583 fb_mult1_mult_17_n307
*584 fb_mult1_mult_17_n306
*585 fb_mult1_mult_17_n305
*586 fb_mult1_mult_17_n304
*587 fb_mult1_mult_17_n303
*588 fb_mult1_mult_17_n301
*589 fb_mult1_mult_17_n297
*590 fb_mult1_mult_17_n296
*591 fb_mult1_mult_17_n295
*592 fb_mult1_mult_17_n294
*593 fb_mult1_mult_17_n293
*594 fb_mult1_mult_17_n292
*595 fb_mult1_mult_17_n291
*596 fb_mult1_mult_17_n290
*597 fb_mult1_mult_17_n289
*598 fb_mult1_mult_17_n288
*599 fb_mult1_mult_17_n287
*600 fb_mult1_mult_17_n286
*601 fb_mult1_mult_17_n285
*602 fb_mult1_mult_17_n284
*603 fb_mult1_mult_17_n283
*604 fb_mult1_mult_17_n282
*605 fb_mult1_mult_17_n281
*606 fb_mult1_mult_17_n280
*607 fb_mult1_mult_17_n279
*608 fb_mult1_mult_17_n278
*609 fb_mult1_mult_17_n141
*610 fb_mult1_mult_17_n140
*611 fb_mult1_mult_17_n139
*612 fb_mult1_mult_17_n138
*613 fb_mult1_mult_17_n137
*614 fb_mult1_mult_17_n136
*615 fb_mult1_mult_17_n133
*616 fb_mult1_mult_17_n132
*617 fb_mult1_mult_17_n131
*618 fb_mult1_mult_17_n130
*619 fb_mult1_mult_17_n129
*620 fb_mult1_mult_17_n128
*621 fb_mult1_mult_17_n127
*622 fb_mult1_mult_17_n125
*623 fb_mult1_mult_17_n124
*624 fb_mult1_mult_17_n123
*625 fb_mult1_mult_17_n122
*626 fb_mult1_mult_17_n121
*627 fb_mult1_mult_17_n120
*628 fb_mult1_mult_17_n119
*629 fb_mult1_mult_17_n118
*630 fb_mult1_mult_17_n116
*631 fb_mult1_mult_17_n115
*632 fb_mult1_mult_17_n114
*633 fb_mult1_mult_17_n112
*634 fb_mult1_mult_17_n111
*635 fb_mult1_mult_17_n110
*636 fb_mult1_mult_17_n109
*637 fb_mult1_mult_17_n107
*638 fb_mult1_mult_17_n105
*639 fb_mult1_mult_17_n104
*640 fb_mult1_mult_17_n103
*641 fb_mult1_mult_17_n102
*642 fb_mult1_mult_17_n101
*643 fb_mult1_mult_17_n100
*644 fb_mult1_mult_17_n96
*645 fb_mult1_mult_17_n95
*646 fb_mult1_mult_17_n94
*647 fb_mult1_mult_17_n79
*648 fb_mult1_mult_17_n78
*649 fb_mult1_mult_17_n77
*650 fb_mult1_mult_17_n76
*651 fb_mult1_mult_17_n75
*652 fb_mult1_mult_17_n74
*653 fb_mult1_mult_17_n73
*654 fb_mult1_mult_17_n72
*655 fb_mult1_mult_17_n71
*656 fb_mult1_mult_17_n70
*657 fb_mult1_mult_17_n69
*658 fb_mult1_mult_17_n68
*659 fb_mult1_mult_17_n67
*660 fb_mult1_mult_17_n66
*661 fb_mult1_mult_17_n65
*662 fb_mult1_mult_17_n64
*663 fb_mult1_mult_17_n63
*664 fb_mult1_mult_17_n62
*665 fb_mult1_mult_17_n61
*666 fb_mult1_mult_17_n60
*667 fb_mult1_mult_17_n59
*668 fb_mult1_mult_17_n58
*669 fb_mult1_mult_17_n57
*670 fb_mult1_mult_17_n56
*671 fb_mult1_mult_17_n55
*672 fb_mult1_mult_17_n54
*673 fb_mult1_mult_17_n53
*674 fb_mult1_mult_17_n52
*675 fb_mult1_mult_17_n51
*676 fb_mult1_mult_17_n50
*677 fb_mult1_mult_17_n49
*678 fb_mult1_mult_17_n48
*679 fb_mult1_mult_17_n46
*680 fb_mult1_mult_17_n45
*681 fb_mult1_mult_17_n44
*682 fb_mult1_mult_17_n43
*683 fb_mult1_mult_17_n42
*684 fb_mult1_mult_17_n41
*685 fb_mult1_mult_17_n40
*686 fb_mult1_mult_17_n39
*687 fb_mult1_mult_17_n38
*688 fb_mult1_mult_17_n37
*689 fb_mult1_mult_17_n36
*690 fb_mult1_mult_17_n35
*691 fb_mult1_mult_17_n34
*692 fb_mult1_mult_17_n32
*693 fb_mult1_mult_17_n31
*694 fb_mult1_mult_17_n30
*695 fb_mult1_mult_17_n29
*696 fb_mult1_mult_17_n28
*697 fb_mult1_mult_17_n27
*698 fb_mult1_mult_17_n26
*699 fb_mult1_mult_17_n25
*700 fb_mult1_mult_17_n24
*701 fb_mult1_mult_17_n22
*702 fb_mult1_mult_17_n21
*703 fb_mult1_mult_17_n20
*704 fb_mult1_mult_17_n19
*705 fb_mult1_mult_17_n18
*706 fb_mult1_mult_17_n7
*707 fb_mult1_mult_17_n6
*708 fb_mult1_mult_17_n5
*709 fb_mult1_mult_17_n4
*710 fb_mult1_mult_17_n3
*711 fb_mult1_mult_17_n2
*712 fb_add_add_16_n1
*713 ff_mult0_fract_product_0_
*714 ff_mult0_mult_17_n382
*715 ff_mult0_mult_17_n381
*716 ff_mult0_mult_17_n380
*717 ff_mult0_mult_17_n379
*718 ff_mult0_mult_17_n378
*719 ff_mult0_mult_17_n377
*720 ff_mult0_mult_17_n376
*721 ff_mult0_mult_17_n375
*722 ff_mult0_mult_17_n374
*723 ff_mult0_mult_17_n373
*724 ff_mult0_mult_17_n372
*725 ff_mult0_mult_17_n371
*726 ff_mult0_mult_17_n370
*727 ff_mult0_mult_17_n369
*728 ff_mult0_mult_17_n368
*729 ff_mult0_mult_17_n367
*730 ff_mult0_mult_17_n366
*731 ff_mult0_mult_17_n365
*732 ff_mult0_mult_17_n364
*733 ff_mult0_mult_17_n363
*734 ff_mult0_mult_17_n362
*735 ff_mult0_mult_17_n361
*736 ff_mult0_mult_17_n360
*737 ff_mult0_mult_17_n359
*738 ff_mult0_mult_17_n358
*739 ff_mult0_mult_17_n357
*740 ff_mult0_mult_17_n356
*741 ff_mult0_mult_17_n355
*742 ff_mult0_mult_17_n354
*743 ff_mult0_mult_17_n353
*744 ff_mult0_mult_17_n352
*745 ff_mult0_mult_17_n351
*746 ff_mult0_mult_17_n350
*747 ff_mult0_mult_17_n349
*748 ff_mult0_mult_17_n348
*749 ff_mult0_mult_17_n347
*750 ff_mult0_mult_17_n346
*751 ff_mult0_mult_17_n345
*752 ff_mult0_mult_17_n344
*753 ff_mult0_mult_17_n343
*754 ff_mult0_mult_17_n342
*755 ff_mult0_mult_17_n341
*756 ff_mult0_mult_17_n340
*757 ff_mult0_mult_17_n339
*758 ff_mult0_mult_17_n338
*759 ff_mult0_mult_17_n337
*760 ff_mult0_mult_17_n336
*761 ff_mult0_mult_17_n335
*762 ff_mult0_mult_17_n334
*763 ff_mult0_mult_17_n333
*764 ff_mult0_mult_17_n332
*765 ff_mult0_mult_17_n331
*766 ff_mult0_mult_17_n330
*767 ff_mult0_mult_17_n329
*768 ff_mult0_mult_17_n328
*769 ff_mult0_mult_17_n327
*770 ff_mult0_mult_17_n326
*771 ff_mult0_mult_17_n325
*772 ff_mult0_mult_17_n324
*773 ff_mult0_mult_17_n323
*774 ff_mult0_mult_17_n322
*775 ff_mult0_mult_17_n321
*776 ff_mult0_mult_17_n320
*777 ff_mult0_mult_17_n319
*778 ff_mult0_mult_17_n318
*779 ff_mult0_mult_17_n317
*780 ff_mult0_mult_17_n316
*781 ff_mult0_mult_17_n315
*782 ff_mult0_mult_17_n314
*783 ff_mult0_mult_17_n313
*784 ff_mult0_mult_17_n312
*785 ff_mult0_mult_17_n311
*786 ff_mult0_mult_17_n310
*787 ff_mult0_mult_17_n309
*788 ff_mult0_mult_17_n308
*789 ff_mult0_mult_17_n307
*790 ff_mult0_mult_17_n305
*791 ff_mult0_mult_17_n301
*792 ff_mult0_mult_17_n300
*793 ff_mult0_mult_17_n299
*794 ff_mult0_mult_17_n298
*795 ff_mult0_mult_17_n297
*796 ff_mult0_mult_17_n296
*797 ff_mult0_mult_17_n295
*798 ff_mult0_mult_17_n294
*799 ff_mult0_mult_17_n293
*800 ff_mult0_mult_17_n292
*801 ff_mult0_mult_17_n291
*802 ff_mult0_mult_17_n290
*803 ff_mult0_mult_17_n289
*804 ff_mult0_mult_17_n288
*805 ff_mult0_mult_17_n287
*806 ff_mult0_mult_17_n286
*807 ff_mult0_mult_17_n285
*808 ff_mult0_mult_17_n284
*809 ff_mult0_mult_17_n283
*810 ff_mult0_mult_17_n282
*811 ff_mult0_mult_17_n141
*812 ff_mult0_mult_17_n140
*813 ff_mult0_mult_17_n139
*814 ff_mult0_mult_17_n138
*815 ff_mult0_mult_17_n137
*816 ff_mult0_mult_17_n136
*817 ff_mult0_mult_17_n133
*818 ff_mult0_mult_17_n132
*819 ff_mult0_mult_17_n131
*820 ff_mult0_mult_17_n130
*821 ff_mult0_mult_17_n129
*822 ff_mult0_mult_17_n128
*823 ff_mult0_mult_17_n127
*824 ff_mult0_mult_17_n125
*825 ff_mult0_mult_17_n124
*826 ff_mult0_mult_17_n123
*827 ff_mult0_mult_17_n122
*828 ff_mult0_mult_17_n121
*829 ff_mult0_mult_17_n120
*830 ff_mult0_mult_17_n119
*831 ff_mult0_mult_17_n118
*832 ff_mult0_mult_17_n116
*833 ff_mult0_mult_17_n115
*834 ff_mult0_mult_17_n114
*835 ff_mult0_mult_17_n112
*836 ff_mult0_mult_17_n111
*837 ff_mult0_mult_17_n110
*838 ff_mult0_mult_17_n109
*839 ff_mult0_mult_17_n107
*840 ff_mult0_mult_17_n105
*841 ff_mult0_mult_17_n104
*842 ff_mult0_mult_17_n103
*843 ff_mult0_mult_17_n102
*844 ff_mult0_mult_17_n101
*845 ff_mult0_mult_17_n100
*846 ff_mult0_mult_17_n96
*847 ff_mult0_mult_17_n95
*848 ff_mult0_mult_17_n94
*849 ff_mult0_mult_17_n79
*850 ff_mult0_mult_17_n78
*851 ff_mult0_mult_17_n77
*852 ff_mult0_mult_17_n76
*853 ff_mult0_mult_17_n75
*854 ff_mult0_mult_17_n74
*855 ff_mult0_mult_17_n73
*856 ff_mult0_mult_17_n72
*857 ff_mult0_mult_17_n71
*858 ff_mult0_mult_17_n70
*859 ff_mult0_mult_17_n69
*860 ff_mult0_mult_17_n68
*861 ff_mult0_mult_17_n67
*862 ff_mult0_mult_17_n66
*863 ff_mult0_mult_17_n65
*864 ff_mult0_mult_17_n64
*865 ff_mult0_mult_17_n63
*866 ff_mult0_mult_17_n62
*867 ff_mult0_mult_17_n61
*868 ff_mult0_mult_17_n60
*869 ff_mult0_mult_17_n59
*870 ff_mult0_mult_17_n58
*871 ff_mult0_mult_17_n57
*872 ff_mult0_mult_17_n56
*873 ff_mult0_mult_17_n55
*874 ff_mult0_mult_17_n54
*875 ff_mult0_mult_17_n53
*876 ff_mult0_mult_17_n52
*877 ff_mult0_mult_17_n51
*878 ff_mult0_mult_17_n50
*879 ff_mult0_mult_17_n49
*880 ff_mult0_mult_17_n48
*881 ff_mult0_mult_17_n46
*882 ff_mult0_mult_17_n45
*883 ff_mult0_mult_17_n44
*884 ff_mult0_mult_17_n43
*885 ff_mult0_mult_17_n42
*886 ff_mult0_mult_17_n41
*887 ff_mult0_mult_17_n40
*888 ff_mult0_mult_17_n39
*889 ff_mult0_mult_17_n38
*890 ff_mult0_mult_17_n37
*891 ff_mult0_mult_17_n36
*892 ff_mult0_mult_17_n35
*893 ff_mult0_mult_17_n34
*894 ff_mult0_mult_17_n32
*895 ff_mult0_mult_17_n31
*896 ff_mult0_mult_17_n30
*897 ff_mult0_mult_17_n29
*898 ff_mult0_mult_17_n28
*899 ff_mult0_mult_17_n27
*900 ff_mult0_mult_17_n26
*901 ff_mult0_mult_17_n25
*902 ff_mult0_mult_17_n24
*903 ff_mult0_mult_17_n22
*904 ff_mult0_mult_17_n21
*905 ff_mult0_mult_17_n20
*906 ff_mult0_mult_17_n19
*907 ff_mult0_mult_17_n18
*908 ff_mult0_mult_17_n7
*909 ff_mult0_mult_17_n6
*910 ff_mult0_mult_17_n5
*911 ff_mult0_mult_17_n4
*912 ff_mult0_mult_17_n3
*913 ff_mult0_mult_17_n2
*914 ff_mult1_fract_product_0_
*915 ff_mult1_mult_17_n382
*916 ff_mult1_mult_17_n381
*917 ff_mult1_mult_17_n380
*918 ff_mult1_mult_17_n379
*919 ff_mult1_mult_17_n378
*920 ff_mult1_mult_17_n377
*921 ff_mult1_mult_17_n376
*922 ff_mult1_mult_17_n375
*923 ff_mult1_mult_17_n374
*924 ff_mult1_mult_17_n373
*925 ff_mult1_mult_17_n372
*926 ff_mult1_mult_17_n371
*927 ff_mult1_mult_17_n370
*928 ff_mult1_mult_17_n369
*929 ff_mult1_mult_17_n368
*930 ff_mult1_mult_17_n367
*931 ff_mult1_mult_17_n366
*932 ff_mult1_mult_17_n365
*933 ff_mult1_mult_17_n364
*934 ff_mult1_mult_17_n363
*935 ff_mult1_mult_17_n362
*936 ff_mult1_mult_17_n361
*937 ff_mult1_mult_17_n360
*938 ff_mult1_mult_17_n359
*939 ff_mult1_mult_17_n358
*940 ff_mult1_mult_17_n357
*941 ff_mult1_mult_17_n356
*942 ff_mult1_mult_17_n355
*943 ff_mult1_mult_17_n354
*944 ff_mult1_mult_17_n353
*945 ff_mult1_mult_17_n352
*946 ff_mult1_mult_17_n351
*947 ff_mult1_mult_17_n350
*948 ff_mult1_mult_17_n349
*949 ff_mult1_mult_17_n348
*950 ff_mult1_mult_17_n347
*951 ff_mult1_mult_17_n346
*952 ff_mult1_mult_17_n345
*953 ff_mult1_mult_17_n344
*954 ff_mult1_mult_17_n343
*955 ff_mult1_mult_17_n342
*956 ff_mult1_mult_17_n341
*957 ff_mult1_mult_17_n340
*958 ff_mult1_mult_17_n339
*959 ff_mult1_mult_17_n338
*960 ff_mult1_mult_17_n337
*961 ff_mult1_mult_17_n336
*962 ff_mult1_mult_17_n335
*963 ff_mult1_mult_17_n334
*964 ff_mult1_mult_17_n333
*965 ff_mult1_mult_17_n332
*966 ff_mult1_mult_17_n331
*967 ff_mult1_mult_17_n330
*968 ff_mult1_mult_17_n329
*969 ff_mult1_mult_17_n328
*970 ff_mult1_mult_17_n327
*971 ff_mult1_mult_17_n326
*972 ff_mult1_mult_17_n325
*973 ff_mult1_mult_17_n324
*974 ff_mult1_mult_17_n323
*975 ff_mult1_mult_17_n322
*976 ff_mult1_mult_17_n321
*977 ff_mult1_mult_17_n320
*978 ff_mult1_mult_17_n319
*979 ff_mult1_mult_17_n318
*980 ff_mult1_mult_17_n317
*981 ff_mult1_mult_17_n316
*982 ff_mult1_mult_17_n315
*983 ff_mult1_mult_17_n314
*984 ff_mult1_mult_17_n313
*985 ff_mult1_mult_17_n312
*986 ff_mult1_mult_17_n311
*987 ff_mult1_mult_17_n310
*988 ff_mult1_mult_17_n309
*989 ff_mult1_mult_17_n308
*990 ff_mult1_mult_17_n307
*991 ff_mult1_mult_17_n305
*992 ff_mult1_mult_17_n301
*993 ff_mult1_mult_17_n300
*994 ff_mult1_mult_17_n299
*995 ff_mult1_mult_17_n298
*996 ff_mult1_mult_17_n297
*997 ff_mult1_mult_17_n296
*998 ff_mult1_mult_17_n295
*999 ff_mult1_mult_17_n294
*1000 ff_mult1_mult_17_n293
*1001 ff_mult1_mult_17_n292
*1002 ff_mult1_mult_17_n291
*1003 ff_mult1_mult_17_n290
*1004 ff_mult1_mult_17_n289
*1005 ff_mult1_mult_17_n288
*1006 ff_mult1_mult_17_n287
*1007 ff_mult1_mult_17_n286
*1008 ff_mult1_mult_17_n285
*1009 ff_mult1_mult_17_n284
*1010 ff_mult1_mult_17_n283
*1011 ff_mult1_mult_17_n282
*1012 ff_mult1_mult_17_n141
*1013 ff_mult1_mult_17_n140
*1014 ff_mult1_mult_17_n139
*1015 ff_mult1_mult_17_n138
*1016 ff_mult1_mult_17_n137
*1017 ff_mult1_mult_17_n136
*1018 ff_mult1_mult_17_n133
*1019 ff_mult1_mult_17_n132
*1020 ff_mult1_mult_17_n131
*1021 ff_mult1_mult_17_n130
*1022 ff_mult1_mult_17_n129
*1023 ff_mult1_mult_17_n128
*1024 ff_mult1_mult_17_n127
*1025 ff_mult1_mult_17_n125
*1026 ff_mult1_mult_17_n124
*1027 ff_mult1_mult_17_n123
*1028 ff_mult1_mult_17_n122
*1029 ff_mult1_mult_17_n121
*1030 ff_mult1_mult_17_n120
*1031 ff_mult1_mult_17_n119
*1032 ff_mult1_mult_17_n118
*1033 ff_mult1_mult_17_n116
*1034 ff_mult1_mult_17_n115
*1035 ff_mult1_mult_17_n114
*1036 ff_mult1_mult_17_n112
*1037 ff_mult1_mult_17_n111
*1038 ff_mult1_mult_17_n110
*1039 ff_mult1_mult_17_n109
*1040 ff_mult1_mult_17_n107
*1041 ff_mult1_mult_17_n105
*1042 ff_mult1_mult_17_n104
*1043 ff_mult1_mult_17_n103
*1044 ff_mult1_mult_17_n102
*1045 ff_mult1_mult_17_n101
*1046 ff_mult1_mult_17_n100
*1047 ff_mult1_mult_17_n96
*1048 ff_mult1_mult_17_n95
*1049 ff_mult1_mult_17_n94
*1050 ff_mult1_mult_17_n79
*1051 ff_mult1_mult_17_n78
*1052 ff_mult1_mult_17_n77
*1053 ff_mult1_mult_17_n76
*1054 ff_mult1_mult_17_n75
*1055 ff_mult1_mult_17_n74
*1056 ff_mult1_mult_17_n73
*1057 ff_mult1_mult_17_n72
*1058 ff_mult1_mult_17_n71
*1059 ff_mult1_mult_17_n70
*1060 ff_mult1_mult_17_n69
*1061 ff_mult1_mult_17_n68
*1062 ff_mult1_mult_17_n67
*1063 ff_mult1_mult_17_n66
*1064 ff_mult1_mult_17_n65
*1065 ff_mult1_mult_17_n64
*1066 ff_mult1_mult_17_n63
*1067 ff_mult1_mult_17_n62
*1068 ff_mult1_mult_17_n61
*1069 ff_mult1_mult_17_n60
*1070 ff_mult1_mult_17_n59
*1071 ff_mult1_mult_17_n58
*1072 ff_mult1_mult_17_n57
*1073 ff_mult1_mult_17_n56
*1074 ff_mult1_mult_17_n55
*1075 ff_mult1_mult_17_n54
*1076 ff_mult1_mult_17_n53
*1077 ff_mult1_mult_17_n52
*1078 ff_mult1_mult_17_n51
*1079 ff_mult1_mult_17_n50
*1080 ff_mult1_mult_17_n49
*1081 ff_mult1_mult_17_n48
*1082 ff_mult1_mult_17_n46
*1083 ff_mult1_mult_17_n45
*1084 ff_mult1_mult_17_n44
*1085 ff_mult1_mult_17_n43
*1086 ff_mult1_mult_17_n42
*1087 ff_mult1_mult_17_n41
*1088 ff_mult1_mult_17_n40
*1089 ff_mult1_mult_17_n39
*1090 ff_mult1_mult_17_n38
*1091 ff_mult1_mult_17_n37
*1092 ff_mult1_mult_17_n36
*1093 ff_mult1_mult_17_n35
*1094 ff_mult1_mult_17_n34
*1095 ff_mult1_mult_17_n32
*1096 ff_mult1_mult_17_n31
*1097 ff_mult1_mult_17_n30
*1098 ff_mult1_mult_17_n29
*1099 ff_mult1_mult_17_n28
*1100 ff_mult1_mult_17_n27
*1101 ff_mult1_mult_17_n26
*1102 ff_mult1_mult_17_n25
*1103 ff_mult1_mult_17_n24
*1104 ff_mult1_mult_17_n22
*1105 ff_mult1_mult_17_n21
*1106 ff_mult1_mult_17_n20
*1107 ff_mult1_mult_17_n19
*1108 ff_mult1_mult_17_n18
*1109 ff_mult1_mult_17_n7
*1110 ff_mult1_mult_17_n6
*1111 ff_mult1_mult_17_n5
*1112 ff_mult1_mult_17_n4
*1113 ff_mult1_mult_17_n3
*1114 ff_mult1_mult_17_n2
*1115 ff_add_add_16_n2
*1116 w_sub_sub_16_n10
*1117 w_sub_sub_16_n9
*1118 w_sub_sub_16_n8
*1119 w_sub_sub_16_n7
*1120 w_sub_sub_16_n6
*1121 w_sub_sub_16_n1
*1122 y_mult_fract_product_0_
*1123 y_mult_mult_17_n377
*1124 y_mult_mult_17_n376
*1125 y_mult_mult_17_n375
*1126 y_mult_mult_17_n374
*1127 y_mult_mult_17_n373
*1128 y_mult_mult_17_n372
*1129 y_mult_mult_17_n371
*1130 y_mult_mult_17_n370
*1131 y_mult_mult_17_n369
*1132 y_mult_mult_17_n368
*1133 y_mult_mult_17_n367
*1134 y_mult_mult_17_n366
*1135 y_mult_mult_17_n365
*1136 y_mult_mult_17_n364
*1137 y_mult_mult_17_n363
*1138 y_mult_mult_17_n362
*1139 y_mult_mult_17_n361
*1140 y_mult_mult_17_n360
*1141 y_mult_mult_17_n359
*1142 y_mult_mult_17_n358
*1143 y_mult_mult_17_n357
*1144 y_mult_mult_17_n356
*1145 y_mult_mult_17_n355
*1146 y_mult_mult_17_n354
*1147 y_mult_mult_17_n353
*1148 y_mult_mult_17_n352
*1149 y_mult_mult_17_n351
*1150 y_mult_mult_17_n350
*1151 y_mult_mult_17_n349
*1152 y_mult_mult_17_n348
*1153 y_mult_mult_17_n347
*1154 y_mult_mult_17_n346
*1155 y_mult_mult_17_n345
*1156 y_mult_mult_17_n344
*1157 y_mult_mult_17_n343
*1158 y_mult_mult_17_n342
*1159 y_mult_mult_17_n341
*1160 y_mult_mult_17_n340
*1161 y_mult_mult_17_n339
*1162 y_mult_mult_17_n338
*1163 y_mult_mult_17_n337
*1164 y_mult_mult_17_n336
*1165 y_mult_mult_17_n335
*1166 y_mult_mult_17_n334
*1167 y_mult_mult_17_n333
*1168 y_mult_mult_17_n332
*1169 y_mult_mult_17_n331
*1170 y_mult_mult_17_n330
*1171 y_mult_mult_17_n329
*1172 y_mult_mult_17_n328
*1173 y_mult_mult_17_n327
*1174 y_mult_mult_17_n326
*1175 y_mult_mult_17_n325
*1176 y_mult_mult_17_n324
*1177 y_mult_mult_17_n323
*1178 y_mult_mult_17_n322
*1179 y_mult_mult_17_n321
*1180 y_mult_mult_17_n320
*1181 y_mult_mult_17_n319
*1182 y_mult_mult_17_n318
*1183 y_mult_mult_17_n317
*1184 y_mult_mult_17_n316
*1185 y_mult_mult_17_n315
*1186 y_mult_mult_17_n314
*1187 y_mult_mult_17_n313
*1188 y_mult_mult_17_n312
*1189 y_mult_mult_17_n311
*1190 y_mult_mult_17_n310
*1191 y_mult_mult_17_n309
*1192 y_mult_mult_17_n308
*1193 y_mult_mult_17_n307
*1194 y_mult_mult_17_n306
*1195 y_mult_mult_17_n305
*1196 y_mult_mult_17_n304
*1197 y_mult_mult_17_n303
*1198 y_mult_mult_17_n302
*1199 y_mult_mult_17_n301
*1200 y_mult_mult_17_n300
*1201 y_mult_mult_17_n299
*1202 y_mult_mult_17_n298
*1203 y_mult_mult_17_n297
*1204 y_mult_mult_17_n296
*1205 y_mult_mult_17_n295
*1206 y_mult_mult_17_n294
*1207 y_mult_mult_17_n293
*1208 y_mult_mult_17_n292
*1209 y_mult_mult_17_n291
*1210 y_mult_mult_17_n290
*1211 y_mult_mult_17_n289
*1212 y_mult_mult_17_n288
*1213 y_mult_mult_17_n287
*1214 y_mult_mult_17_n286
*1215 y_mult_mult_17_n285
*1216 y_mult_mult_17_n284
*1217 y_mult_mult_17_n283
*1218 y_mult_mult_17_n282
*1219 y_mult_mult_17_n281
*1220 y_mult_mult_17_n280
*1221 y_mult_mult_17_n279
*1222 y_mult_mult_17_n278
*1223 y_mult_mult_17_n277
*1224 y_mult_mult_17_n141
*1225 y_mult_mult_17_n140
*1226 y_mult_mult_17_n139
*1227 y_mult_mult_17_n138
*1228 y_mult_mult_17_n137
*1229 y_mult_mult_17_n136
*1230 y_mult_mult_17_n133
*1231 y_mult_mult_17_n132
*1232 y_mult_mult_17_n131
*1233 y_mult_mult_17_n130
*1234 y_mult_mult_17_n129
*1235 y_mult_mult_17_n128
*1236 y_mult_mult_17_n127
*1237 y_mult_mult_17_n125
*1238 y_mult_mult_17_n124
*1239 y_mult_mult_17_n123
*1240 y_mult_mult_17_n122
*1241 y_mult_mult_17_n121