*SPEF "IEEE 1481-1998"
*DESIGN "IIR_FILTER_ADV"
*DATE "Sat Nov 14 17:00:48 2020"
*VENDOR "Cadence Design Systems, Inc."
*PROGRAM "Innovus"
*VERSION "17.11-s080_1"
*DESIGN_FLOW "COUPLING C" "PIN_CAP NONE" "NAME_SCOPE LOCAL"
*DIVIDER /
*DELIMITER :
*BUS_DELIMITER []
*T_UNIT 1 NS
*C_UNIT 1 PF
*R_UNIT 1 OHM
*L_UNIT 1 HENRY

// MMMC spef file for corner 'my_rc'

*NAME_MAP

*1 din[10]
*2 din[9]
*3 din[8]
*4 din[7]
*5 din[6]
*6 din[5]
*7 din[4]
*8 din[3]
*9 din[2]
*10 din[1]
*11 din[0]
*12 b0[10]
*13 b0[9]
*14 b0[8]
*15 b0[7]
*16 b0[6]
*17 b0[5]
*18 b0[4]
*19 b0[3]
*20 b0[2]
*21 b0[1]
*22 b0[0]
*23 b1[10]
*24 b1[9]
*25 b1[8]
*26 b1[7]
*27 b1[6]
*28 b1[5]
*29 b1[4]
*30 b1[3]
*31 b1[2]
*32 b1[1]
*33 b1[0]
*34 b2[10]
*35 b2[9]
*36 b2[8]
*37 b2[7]
*38 b2[6]
*39 b2[5]
*40 b2[4]
*41 b2[3]
*42 b2[2]
*43 b2[1]
*44 b2[0]
*45 a1_neg[10]
*46 a1_neg[9]
*47 a1_neg[8]
*48 a1_neg[7]
*49 a1_neg[6]
*50 a1_neg[5]
*51 a1_neg[4]
*52 a1_neg[3]
*53 a1_neg[2]
*54 a1_neg[1]
*55 a1_neg[0]
*56 a1_2_a2[10]
*57 a1_2_a2[9]
*58 a1_2_a2[8]
*59 a1_2_a2[7]
*60 a1_2_a2[6]
*61 a1_2_a2[5]
*62 a1_2_a2[4]
*63 a1_2_a2[3]
*64 a1_2_a2[2]
*65 a1_2_a2[1]
*66 a1_2_a2[0]
*67 a1a2[10]
*68 a1a2[9]
*69 a1a2[8]
*70 a1a2[7]
*71 a1a2[6]
*72 a1a2[5]
*73 a1a2[4]
*74 a1a2[3]
*75 a1a2[2]
*76 a1a2[1]
*77 a1a2[0]
*78 clk
*79 vin
*80 rst_n
*81 dout[10]
*82 dout[9]
*83 dout[8]
*84 dout[7]
*85 dout[6]
*86 dout[5]
*87 dout[4]
*88 dout[3]
*89 dout[2]
*90 dout[1]
*91 dout[0]
*92 vout
*93 FE_OFN24_fb_mult1_mult_17_n488
*94 FE_OFN23_ff_mult0_mult_17_n492
*95 FE_OFN22_fb_mult0_mult_17_n488
*96 FE_OFN21_y_mult_mult_17_n492
*97 FE_OFN20_ff_mult1_mult_17_n492
*98 FE_OFN19_rst_n
*99 FE_OFN18_rst_n
*100 FE_OFN17_rst_n
*101 FE_OFN16_vin
*102 FE_OFN15_vin
*103 FE_OFN14_a1x_mult_mult_17_n486
*104 FE_OFN13_sw1_3
*105 FE_OFN12_sw1_7
*106 FE_OFN11_sw1_5
*107 FE_OFN10_sw1_9
*108 FE_OFN9_sw1_1
*109 FE_OFN8_sw1_10
*110 FE_OFN7_vout_tmp1
*111 FE_OFN6_sw0_9
*112 FE_OFN5_sw0_3
*113 FE_OFN4_sw0_7
*114 FE_OFN3_sw0_5
*115 FE_OFN2_sw0_10
*116 FE_OFN1_sw0_1
*117 FE_OFN0_vout_tmp2
*118 FE_DBTN9_sw0_0
*119 FE_DBTN8_sw0_9
*120 FE_DBTN7_sw0_7
*121 FE_DBTN6_sw0_5
*122 FE_DBTN5_sw0_3
*123 FE_DBTN4_sw1_0
*124 FE_DBTN3_sw1_9
*125 FE_DBTN2_sw1_7
*126 FE_DBTN1_sw1_5
*127 FE_DBTN0_sw1_3
*128 vout_tmp1
*129 vout_tmp2
*130 vout_tmp3
*131 din_reg_n33
*132 din_reg_n32
*133 din_reg_n31
*134 din_reg_n30
*135 din_reg_n29
*136 din_reg_n28
*137 din_reg_n27
*138 din_reg_n26
*139 din_reg_n25
*140 din_reg_n24
*141 din_reg_n23
*142 din_reg_n22
*143 din_reg_n21
*144 din_reg_n20
*145 din_reg_n19
*146 din_reg_n18
*147 din_reg_n17
*148 din_reg_n16
*149 din_reg_n15
*150 din_reg_n14
*151 din_reg_n13
*152 din_reg_n12
*153 din_reg_n11
*154 din_reg_n10
*155 din_reg_n9
*156 din_reg_n8
*157 din_reg_n7
*158 din_reg_n6
*159 din_reg_n5
*160 din_reg_n4
*161 din_reg_n3
*162 din_reg_n2
*163 din_reg_n1
*164 b0_reg_n68
*165 b0_reg_n67
*166 b0_reg_n66
*167 b0_reg_n65
*168 b0_reg_n64
*169 b0_reg_n63
*170 b0_reg_n62
*171 b0_reg_n61
*172 b0_reg_n60
*173 b0_reg_n59
*174 b0_reg_n58
*175 b0_reg_n57
*176 b0_reg_n56
*177 b0_reg_n55
*178 b0_reg_n54
*179 b0_reg_n53
*180 b0_reg_n52
*181 b0_reg_n51
*182 b0_reg_n50
*183 b0_reg_n49
*184 b0_reg_n48
*185 b0_reg_n47
*186 b0_reg_n46
*187 b0_reg_n45
*188 b0_reg_n44
*189 b0_reg_n43
*190 b0_reg_n42
*191 b0_reg_n41
*192 b0_reg_n40
*193 b0_reg_n39
*194 b0_reg_n38
*195 b0_reg_n37
*196 b0_reg_n36
*197 b1_reg_n68
*198 b1_reg_n67
*199 b1_reg_n66
*200 b1_reg_n65
*201 b1_reg_n64
*202 b1_reg_n63
*203 b1_reg_n62
*204 b1_reg_n61
*205 b1_reg_n60
*206 b1_reg_n59
*207 b1_reg_n58
*208 b1_reg_n57
*209 b1_reg_n56
*210 b1_reg_n55
*211 b1_reg_n54
*212 b1_reg_n53
*213 b1_reg_n52
*214 b1_reg_n51
*215 b1_reg_n50
*216 b1_reg_n49
*217 b1_reg_n48
*218 b1_reg_n47
*219 b1_reg_n46
*220 b1_reg_n45
*221 b1_reg_n44
*222 b1_reg_n43
*223 b1_reg_n42
*224 b1_reg_n41
*225 b1_reg_n40
*226 b1_reg_n39
*227 b1_reg_n38
*228 b1_reg_n37
*229 b1_reg_n36
*230 b2_reg_n68
*231 b2_reg_n67
*232 b2_reg_n66
*233 b2_reg_n65
*234 b2_reg_n64
*235 b2_reg_n63
*236 b2_reg_n62
*237 b2_reg_n61
*238 b2_reg_n60
*239 b2_reg_n59
*240 b2_reg_n58
*241 b2_reg_n57
*242 b2_reg_n56
*243 b2_reg_n55
*244 b2_reg_n54
*245 b2_reg_n53
*246 b2_reg_n52
*247 b2_reg_n51
*248 b2_reg_n50
*249 b2_reg_n49
*250 b2_reg_n48
*251 b2_reg_n47
*252 b2_reg_n46
*253 b2_reg_n45
*254 b2_reg_n44
*255 b2_reg_n43
*256 b2_reg_n42
*257 b2_reg_n41
*258 b2_reg_n40
*259 b2_reg_n39
*260 b2_reg_n38
*261 b2_reg_n37
*262 b2_reg_n36
*263 a1_neg_reg_n68
*264 a1_neg_reg_n67
*265 a1_neg_reg_n66
*266 a1_neg_reg_n65
*267 a1_neg_reg_n64
*268 a1_neg_reg_n63
*269 a1_neg_reg_n62
*270 a1_neg_reg_n61
*271 a1_neg_reg_n60
*272 a1_neg_reg_n59
*273 a1_neg_reg_n58
*274 a1_neg_reg_n57
*275 a1_neg_reg_n56
*276 a1_neg_reg_n55
*277 a1_neg_reg_n54
*278 a1_neg_reg_n53
*279 a1_neg_reg_n52
*280 a1_neg_reg_n51
*281 a1_neg_reg_n50
*282 a1_neg_reg_n49
*283 a1_neg_reg_n48
*284 a1_neg_reg_n47
*285 a1_neg_reg_n46
*286 a1_neg_reg_n45
*287 a1_neg_reg_n44
*288 a1_neg_reg_n43
*289 a1_neg_reg_n42
*290 a1_neg_reg_n41
*291 a1_neg_reg_n40
*292 a1_neg_reg_n39
*293 a1_neg_reg_n38
*294 a1_neg_reg_n37
*295 a1_neg_reg_n36
*296 a1_2_a2_reg_n68
*297 a1_2_a2_reg_n67
*298 a1_2_a2_reg_n66
*299 a1_2_a2_reg_n65
*300 a1_2_a2_reg_n64
*301 a1_2_a2_reg_n63
*302 a1_2_a2_reg_n62
*303 a1_2_a2_reg_n61
*304 a1_2_a2_reg_n60
*305 a1_2_a2_reg_n59
*306 a1_2_a2_reg_n58
*307 a1_2_a2_reg_n57
*308 a1_2_a2_reg_n56
*309 a1_2_a2_reg_n55
*310 a1_2_a2_reg_n54
*311 a1_2_a2_reg_n53
*312 a1_2_a2_reg_n52
*313 a1_2_a2_reg_n51
*314 a1_2_a2_reg_n50
*315 a1_2_a2_reg_n49
*316 a1_2_a2_reg_n48
*317 a1_2_a2_reg_n47
*318 a1_2_a2_reg_n46
*319 a1_2_a2_reg_n45
*320 a1_2_a2_reg_n44
*321 a1_2_a2_reg_n43
*322 a1_2_a2_reg_n42
*323 a1_2_a2_reg_n41
*324 a1_2_a2_reg_n40
*325 a1_2_a2_reg_n39
*326 a1_2_a2_reg_n38
*327 a1_2_a2_reg_n37
*328 a1_2_a2_reg_n36
*329 a1_a2_reg_n68
*330 a1_a2_reg_n67
*331 a1_a2_reg_n66
*332 a1_a2_reg_n65
*333 a1_a2_reg_n64
*334 a1_a2_reg_n63
*335 a1_a2_reg_n62
*336 a1_a2_reg_n61
*337 a1_a2_reg_n60
*338 a1_a2_reg_n59
*339 a1_a2_reg_n58
*340 a1_a2_reg_n57
*341 a1_a2_reg_n56
*342 a1_a2_reg_n55
*343 a1_a2_reg_n54
*344 a1_a2_reg_n53
*345 a1_a2_reg_n52
*346 a1_a2_reg_n51
*347 a1_a2_reg_n50
*348 a1_a2_reg_n49
*349 a1_a2_reg_n48
*350 a1_a2_reg_n47
*351 a1_a2_reg_n46
*352 a1_a2_reg_n45
*353 a1_a2_reg_n44
*354 a1_a2_reg_n43
*355 a1_a2_reg_n42
*356 a1_a2_reg_n41
*357 a1_a2_reg_n40
*358 a1_a2_reg_n39
*359 a1_a2_reg_n38
*360 a1_a2_reg_n37
*361 a1_a2_reg_n36
*362 a1x_mult_fract_product_0_
*363 a1x_mult_mult_17_n515
*364 a1x_mult_mult_17_n514
*365 a1x_mult_mult_17_n513
*366 a1x_mult_mult_17_n512
*367 a1x_mult_mult_17_n511
*368 a1x_mult_mult_17_n510
*369 a1x_mult_mult_17_n509
*370 a1x_mult_mult_17_n508
*371 a1x_mult_mult_17_n507
*372 a1x_mult_mult_17_n506
*373 a1x_mult_mult_17_n505
*374 a1x_mult_mult_17_n504
*375 a1x_mult_mult_17_n503
*376 a1x_mult_mult_17_n502
*377 a1x_mult_mult_17_n501
*378 a1x_mult_mult_17_n500
*379 a1x_mult_mult_17_n499
*380 a1x_mult_mult_17_n498
*381 a1x_mult_mult_17_n497
*382 a1x_mult_mult_17_n496
*383 a1x_mult_mult_17_n495
*384 a1x_mult_mult_17_n494
*385 a1x_mult_mult_17_n493
*386 a1x_mult_mult_17_n492
*387 a1x_mult_mult_17_n491
*388 a1x_mult_mult_17_n490
*389 a1x_mult_mult_17_n489
*390 a1x_mult_mult_17_n488
*391 a1x_mult_mult_17_n487
*392 a1x_mult_mult_17_n486
*393 a1x_mult_mult_17_n485
*394 a1x_mult_mult_17_n484
*395 a1x_mult_mult_17_n483
*396 a1x_mult_mult_17_n482
*397 a1x_mult_mult_17_n481
*398 a1x_mult_mult_17_n480
*399 a1x_mult_mult_17_n479
*400 a1x_mult_mult_17_n478
*401 a1x_mult_mult_17_n477
*402 a1x_mult_mult_17_n476
*403 a1x_mult_mult_17_n475
*404 a1x_mult_mult_17_n474
*405 a1x_mult_mult_17_n473
*406 a1x_mult_mult_17_n472
*407 a1x_mult_mult_17_n471
*408 a1x_mult_mult_17_n470
*409 a1x_mult_mult_17_n469
*410 a1x_mult_mult_17_n468
*411 a1x_mult_mult_17_n467
*412 a1x_mult_mult_17_n466
*413 a1x_mult_mult_17_n465
*414 a1x_mult_mult_17_n464
*415 a1x_mult_mult_17_n463
*416 a1x_mult_mult_17_n462
*417 a1x_mult_mult_17_n461
*418 a1x_mult_mult_17_n460
*419 a1x_mult_mult_17_n459
*420 a1x_mult_mult_17_n458
*421 a1x_mult_mult_17_n457
*422 a1x_mult_mult_17_n456
*423 a1x_mult_mult_17_n455
*424 a1x_mult_mult_17_n454
*425 a1x_mult_mult_17_n453
*426 a1x_mult_mult_17_n452
*427 a1x_mult_mult_17_n451
*428 a1x_mult_mult_17_n450
*429 a1x_mult_mult_17_n449
*430 a1x_mult_mult_17_n448
*431 a1x_mult_mult_17_n447
*432 a1x_mult_mult_17_n446
*433 a1x_mult_mult_17_n445
*434 a1x_mult_mult_17_n444
*435 a1x_mult_mult_17_n443
*436 a1x_mult_mult_17_n442
*437 a1x_mult_mult_17_n441
*438 a1x_mult_mult_17_n440
*439 a1x_mult_mult_17_n439
*440 a1x_mult_mult_17_n438
*441 a1x_mult_mult_17_n437
*442 a1x_mult_mult_17_n436
*443 a1x_mult_mult_17_n435
*444 a1x_mult_mult_17_n434
*445 a1x_mult_mult_17_n433
*446 a1x_mult_mult_17_n432
*447 a1x_mult_mult_17_n431
*448 a1x_mult_mult_17_n430
*449 a1x_mult_mult_17_n429
*450 a1x_mult_mult_17_n428
*451 a1x_mult_mult_17_n427
*452 a1x_mult_mult_17_n426
*453 a1x_mult_mult_17_n425
*454 a1x_mult_mult_17_n424
*455 a1x_mult_mult_17_n423
*456 a1x_mult_mult_17_n422
*457 a1x_mult_mult_17_n421
*458 a1x_mult_mult_17_n420
*459 a1x_mult_mult_17_n419
*460 a1x_mult_mult_17_n418
*461 a1x_mult_mult_17_n417
*462 a1x_mult_mult_17_n416
*463 a1x_mult_mult_17_n415
*464 a1x_mult_mult_17_n414
*465 a1x_mult_mult_17_n413
*466 a1x_mult_mult_17_n412
*467 a1x_mult_mult_17_n411
*468 a1x_mult_mult_17_n410
*469 a1x_mult_mult_17_n409
*470 a1x_mult_mult_17_n408
*471 a1x_mult_mult_17_n407
*472 a1x_mult_mult_17_n406
*473 a1x_mult_mult_17_n405
*474 a1x_mult_mult_17_n404
*475 a1x_mult_mult_17_n403
*476 a1x_mult_mult_17_n402
*477 a1x_mult_mult_17_n401
*478 a1x_mult_mult_17_n400
*479 a1x_mult_mult_17_n399
*480 a1x_mult_mult_17_n398
*481 a1x_mult_mult_17_n397
*482 a1x_mult_mult_17_n396
*483 a1x_mult_mult_17_n395
*484 a1x_mult_mult_17_n394
*485 a1x_mult_mult_17_n393
*486 a1x_mult_mult_17_n392
*487 a1x_mult_mult_17_n391
*488 a1x_mult_mult_17_n390
*489 a1x_mult_mult_17_n389
*490 a1x_mult_mult_17_n388
*491 a1x_mult_mult_17_n387
*492 a1x_mult_mult_17_n386
*493 a1x_mult_mult_17_n385
*494 a1x_mult_mult_17_n384
*495 a1x_mult_mult_17_n383
*496 a1x_mult_mult_17_n382
*497 a1x_mult_mult_17_n208
*498 a1x_mult_mult_17_n207
*499 a1x_mult_mult_17_n206
*500 a1x_mult_mult_17_n205
*501 a1x_mult_mult_17_n204
*502 a1x_mult_mult_17_n203
*503 a1x_mult_mult_17_n202
*504 a1x_mult_mult_17_n201
*505 a1x_mult_mult_17_n198
*506 a1x_mult_mult_17_n197
*507 a1x_mult_mult_17_n196
*508 a1x_mult_mult_17_n195
*509 a1x_mult_mult_17_n194
*510 a1x_mult_mult_17_n193
*511 a1x_mult_mult_17_n192
*512 a1x_mult_mult_17_n191
*513 a1x_mult_mult_17_n190
*514 a1x_mult_mult_17_n188
*515 a1x_mult_mult_17_n187
*516 a1x_mult_mult_17_n186
*517 a1x_mult_mult_17_n185
*518 a1x_mult_mult_17_n184
*519 a1x_mult_mult_17_n183
*520 a1x_mult_mult_17_n182
*521 a1x_mult_mult_17_n181
*522 a1x_mult_mult_17_n180
*523 a1x_mult_mult_17_n179
*524 a1x_mult_mult_17_n177
*525 a1x_mult_mult_17_n176
*526 a1x_mult_mult_17_n175
*527 a1x_mult_mult_17_n174
*528 a1x_mult_mult_17_n173
*529 a1x_mult_mult_17_n172
*530 a1x_mult_mult_17_n171
*531 a1x_mult_mult_17_n170
*532 a1x_mult_mult_17_n169
*533 a1x_mult_mult_17_n168
*534 a1x_mult_mult_17_n166
*535 a1x_mult_mult_17_n165
*536 a1x_mult_mult_17_n164
*537 a1x_mult_mult_17_n162
*538 a1x_mult_mult_17_n161
*539 a1x_mult_mult_17_n160
*540 a1x_mult_mult_17_n159
*541 a1x_mult_mult_17_n158
*542 a1x_mult_mult_17_n157
*543 a1x_mult_mult_17_n155
*544 a1x_mult_mult_17_n153
*545 a1x_mult_mult_17_n152
*546 a1x_mult_mult_17_n151
*547 a1x_mult_mult_17_n150
*548 a1x_mult_mult_17_n149
*549 a1x_mult_mult_17_n148
*550 a1x_mult_mult_17_n147
*551 a1x_mult_mult_17_n146
*552 a1x_mult_mult_17_n142
*553 a1x_mult_mult_17_n141
*554 a1x_mult_mult_17_n140
*555 a1x_mult_mult_17_n139
*556 a1x_mult_mult_17_n121
*557 a1x_mult_mult_17_n120
*558 a1x_mult_mult_17_n119
*559 a1x_mult_mult_17_n118
*560 a1x_mult_mult_17_n117
*561 a1x_mult_mult_17_n116
*562 a1x_mult_mult_17_n115
*563 a1x_mult_mult_17_n114
*564 a1x_mult_mult_17_n113
*565 a1x_mult_mult_17_n112
*566 a1x_mult_mult_17_n111
*567 a1x_mult_mult_17_n110
*568 a1x_mult_mult_17_n109
*569 a1x_mult_mult_17_n108
*570 a1x_mult_mult_17_n107
*571 a1x_mult_mult_17_n106
*572 a1x_mult_mult_17_n105
*573 a1x_mult_mult_17_n104
*574 a1x_mult_mult_17_n103
*575 a1x_mult_mult_17_n102
*576 a1x_mult_mult_17_n101
*577 a1x_mult_mult_17_n100
*578 a1x_mult_mult_17_n99
*579 a1x_mult_mult_17_n98
*580 a1x_mult_mult_17_n97
*581 a1x_mult_mult_17_n96
*582 a1x_mult_mult_17_n95
*583 a1x_mult_mult_17_n94
*584 a1x_mult_mult_17_n93
*585 a1x_mult_mult_17_n92
*586 a1x_mult_mult_17_n91
*587 a1x_mult_mult_17_n90
*588 a1x_mult_mult_17_n89
*589 a1x_mult_mult_17_n88
*590 a1x_mult_mult_17_n87
*591 a1x_mult_mult_17_n86
*592 a1x_mult_mult_17_n85
*593 a1x_mult_mult_17_n84
*594 a1x_mult_mult_17_n83
*595 a1x_mult_mult_17_n82
*596 a1x_mult_mult_17_n81
*597 a1x_mult_mult_17_n80
*598 a1x_mult_mult_17_n79
*599 a1x_mult_mult_17_n78
*600 a1x_mult_mult_17_n77
*601 a1x_mult_mult_17_n76
*602 a1x_mult_mult_17_n75
*603 a1x_mult_mult_17_n74
*604 a1x_mult_mult_17_n73
*605 a1x_mult_mult_17_n72
*606 a1x_mult_mult_17_n70
*607 a1x_mult_mult_17_n69
*608 a1x_mult_mult_17_n68
*609 a1x_mult_mult_17_n67
*610 a1x_mult_mult_17_n66
*611 a1x_mult_mult_17_n65
*612 a1x_mult_mult_17_n64
*613 a1x_mult_mult_17_n63
*614 a1x_mult_mult_17_n62
*615 a1x_mult_mult_17_n61
*616 a1x_mult_mult_17_n60
*617 a1x_mult_mult_17_n59
*618 a1x_mult_mult_17_n58
*619 a1x_mult_mult_17_n57
*620 a1x_mult_mult_17_n56
*621 a1x_mult_mult_17_n55
*622 a1x_mult_mult_17_n54
*623 a1x_mult_mult_17_n52
*624 a1x_mult_mult_17_n51
*625 a1x_mult_mult_17_n50
*626 a1x_mult_mult_17_n49
*627 a1x_mult_mult_17_n48
*628 a1x_mult_mult_17_n47
*629 a1x_mult_mult_17_n46
*630 a1x_mult_mult_17_n45
*631 a1x_mult_mult_17_n44
*632 a1x_mult_mult_17_n43
*633 a1x_mult_mult_17_n42
*634 a1x_mult_mult_17_n41
*635 a1x_mult_mult_17_n40
*636 a1x_mult_mult_17_n38
*637 a1x_mult_mult_17_n37
*638 a1x_mult_mult_17_n36
*639 a1x_mult_mult_17_n35
*640 a1x_mult_mult_17_n34
*641 a1x_mult_mult_17_n33
*642 a1x_mult_mult_17_n32
*643 a1x_mult_mult_17_n31
*644 a1x_mult_mult_17_n30
*645 a1x_mult_mult_17_n28
*646 a1x_mult_mult_17_n27
*647 a1x_mult_mult_17_n26
*648 a1x_mult_mult_17_n25
*649 a1x_mult_mult_17_n24
*650 a1x_mult_mult_17_n11
*651 a1x_mult_mult_17_n10
*652 a1x_mult_mult_17_n9
*653 a1x_mult_mult_17_n8
*654 a1x_mult_mult_17_n7
*655 a1x_mult_mult_17_n6
*656 a1x_mult_mult_17_n5
*657 a1x_mult_mult_17_n4
*658 a1x1_reg_n27
*659 a1x1_reg_n26
*660 a1x1_reg_n25
*661 a1x1_reg_n24
*662 a1x1_reg_n23
*663 a1x1_reg_n22
*664 a1x1_reg_n21
*665 a1x1_reg_n20
*666 a1x1_reg_n19
*667 a1x1_reg_n18
*668 a1x1_reg_n17
*669 a1x1_reg_n16
*670 a1x1_reg_n15
*671 a1x1_reg_n14
*672 a1x1_reg_n13
*673 a1x1_reg_n12
*674 a1x1_reg_n11
*675 a1x1_reg_n10
*676 a1x1_reg_n9
*677 a1x1_reg_n8
*678 a1x1_reg_n7
*679 a1x1_reg_n6
*680 a1x1_reg_n5
*681 a1x1_reg_n4
*682 a1x1_reg_n3
*683 a1x1_reg_n2
*684 a1x1_reg_n1
*685 a1x1_add_add_16_n2
*686 a1x1_add_reg_n68
*687 a1x1_add_reg_n67
*688 a1x1_add_reg_n66
*689 a1x1_add_reg_n65
*690 a1x1_add_reg_n64
*691 a1x1_add_reg_n63
*692 a1x1_add_reg_n62
*693 a1x1_add_reg_n61
*694 a1x1_add_reg_n60
*695 a1x1_add_reg_n59
*696 a1x1_add_reg_n58
*697 a1x1_add_reg_n57
*698 a1x1_add_reg_n56
*699 a1x1_add_reg_n55
*700 a1x1_add_reg_n54
*701 a1x1_add_reg_n53
*702 a1x1_add_reg_n52
*703 a1x1_add_reg_n51
*704 a1x1_add_reg_n50
*705 a1x1_add_reg_n49
*706 a1x1_add_reg_n48
*707 a1x1_add_reg_n47
*708 a1x1_add_reg_n46
*709 a1x1_add_reg_n45
*710 a1x1_add_reg_n44
*711 a1x1_add_reg_n43
*712 a1x1_add_reg_n42
*713 a1x1_add_reg_n41
*714 a1x1_add_reg_n40
*715 a1x1_add_reg_n39
*716 a1x1_add_reg_n38
*717 a1x1_add_reg_n37
*718 a1x1_add_reg_n36
*719 w_add_add_16_n2
*720 fb_mult0_fract_product_0_
*721 fb_mult0_mult_17_n517
*722 fb_mult0_mult_17_n516
*723 fb_mult0_mult_17_n515
*724 fb_mult0_mult_17_n514
*725 fb_mult0_mult_17_n513
*726 fb_mult0_mult_17_n512
*727 fb_mult0_mult_17_n511
*728 fb_mult0_mult_17_n510
*729 fb_mult0_mult_17_n509
*730 fb_mult0_mult_17_n508
*731 fb_mult0_mult_17_n507
*732 fb_mult0_mult_17_n506
*733 fb_mult0_mult_17_n505
*734 fb_mult0_mult_17_n504
*735 fb_mult0_mult_17_n503
*736 fb_mult0_mult_17_n502
*737 fb_mult0_mult_17_n501
*738 fb_mult0_mult_17_n500
*739 fb_mult0_mult_17_n499
*740 fb_mult0_mult_17_n498
*741 fb_mult0_mult_17_n497
*742 fb_mult0_mult_17_n496
*743 fb_mult0_mult_17_n495
*744 fb_mult0_mult_17_n494
*745 fb_mult0_mult_17_n493
*746 fb_mult0_mult_17_n492
*747 fb_mult0_mult_17_n491
*748 fb_mult0_mult_17_n490
*749 fb_mult0_mult_17_n489
*750 fb_mult0_mult_17_n488
*751 fb_mult0_mult_17_n487
*752 fb_mult0_mult_17_n486
*753 fb_mult0_mult_17_n485
*754 fb_mult0_mult_17_n484
*755 fb_mult0_mult_17_n483
*756 fb_mult0_mult_17_n482
*757 fb_mult0_mult_17_n481
*758 fb_mult0_mult_17_n480
*759 fb_mult0_mult_17_n479
*760 fb_mult0_mult_17_n478
*761 fb_mult0_mult_17_n477
*762 fb_mult0_mult_17_n476
*763 fb_mult0_mult_17_n475
*764 fb_mult0_mult_17_n474
*765 fb_mult0_mult_17_n473
*766 fb_mult0_mult_17_n472
*767 fb_mult0_mult_17_n471
*768 fb_mult0_mult_17_n470
*769 fb_mult0_mult_17_n469
*770 fb_mult0_mult_17_n468
*771 fb_mult0_mult_17_n467
*772 fb_mult0_mult_17_n466
*773 fb_mult0_mult_17_n465
*774 fb_mult0_mult_17_n464
*775 fb_mult0_mult_17_n463
*776 fb_mult0_mult_17_n462
*777 fb_mult0_mult_17_n461
*778 fb_mult0_mult_17_n460
*779 fb_mult0_mult_17_n459
*780 fb_mult0_mult_17_n458
*781 fb_mult0_mult_17_n457
*782 fb_mult0_mult_17_n456
*783 fb_mult0_mult_17_n455
*784 fb_mult0_mult_17_n454
*785 fb_mult0_mult_17_n453
*786 fb_mult0_mult_17_n452
*787 fb_mult0_mult_17_n451
*788 fb_mult0_mult_17_n450
*789 fb_mult0_mult_17_n449
*790 fb_mult0_mult_17_n448
*791 fb_mult0_mult_17_n447
*792 fb_mult0_mult_17_n446
*793 fb_mult0_mult_17_n445
*794 fb_mult0_mult_17_n444
*795 fb_mult0_mult_17_n443
*796 fb_mult0_mult_17_n442
*797 fb_mult0_mult_17_n441
*798 fb_mult0_mult_17_n440
*799 fb_mult0_mult_17_n439
*800 fb_mult0_mult_17_n438
*801 fb_mult0_mult_17_n437
*802 fb_mult0_mult_17_n436
*803 fb_mult0_mult_17_n435
*804 fb_mult0_mult_17_n434
*805 fb_mult0_mult_17_n433
*806 fb_mult0_mult_17_n432
*807 fb_mult0_mult_17_n431
*808 fb_mult0_mult_17_n430
*809 fb_mult0_mult_17_n429
*810 fb_mult0_mult_17_n428
*811 fb_mult0_mult_17_n427
*812 fb_mult0_mult_17_n426
*813 fb_mult0_mult_17_n425
*814 fb_mult0_mult_17_n424
*815 fb_mult0_mult_17_n423
*816 fb_mult0_mult_17_n422
*817 fb_mult0_mult_17_n421
*818 fb_mult0_mult_17_n420
*819 fb_mult0_mult_17_n419
*820 fb_mult0_mult_17_n418
*821 fb_mult0_mult_17_n417
*822 fb_mult0_mult_17_n416
*823 fb_mult0_mult_17_n414
*824 fb_mult0_mult_17_n413
*825 fb_mult0_mult_17_n412
*826 fb_mult0_mult_17_n411
*827 fb_mult0_mult_17_n410
*828 fb_mult0_mult_17_n409
*829 fb_mult0_mult_17_n408
*830 fb_mult0_mult_17_n407
*831 fb_mult0_mult_17_n406
*832 fb_mult0_mult_17_n405
*833 fb_mult0_mult_17_n404
*834 fb_mult0_mult_17_n403
*835 fb_mult0_mult_17_n402
*836 fb_mult0_mult_17_n401
*837 fb_mult0_mult_17_n400
*838 fb_mult0_mult_17_n399
*839 fb_mult0_mult_17_n398
*840 fb_mult0_mult_17_n397
*841 fb_mult0_mult_17_n396
*842 fb_mult0_mult_17_n395
*843 fb_mult0_mult_17_n394
*844 fb_mult0_mult_17_n393
*845 fb_mult0_mult_17_n392
*846 fb_mult0_mult_17_n391
*847 fb_mult0_mult_17_n384
*848 fb_mult0_mult_17_n383
*849 fb_mult0_mult_17_n382
*850 fb_mult0_mult_17_n208
*851 fb_mult0_mult_17_n207
*852 fb_mult0_mult_17_n206
*853 fb_mult0_mult_17_n205
*854 fb_mult0_mult_17_n204
*855 fb_mult0_mult_17_n203
*856 fb_mult0_mult_17_n202
*857 fb_mult0_mult_17_n201
*858 fb_mult0_mult_17_n198
*859 fb_mult0_mult_17_n197
*860 fb_mult0_mult_17_n196
*861 fb_mult0_mult_17_n195
*862 fb_mult0_mult_17_n194
*863 fb_mult0_mult_17_n193
*864 fb_mult0_mult_17_n192
*865 fb_mult0_mult_17_n191
*866 fb_mult0_mult_17_n190
*867 fb_mult0_mult_17_n188
*868 fb_mult0_mult_17_n187
*869 fb_mult0_mult_17_n186
*870 fb_mult0_mult_17_n185
*871 fb_mult0_mult_17_n184
*872 fb_mult0_mult_17_n183
*873 fb_mult0_mult_17_n182
*874 fb_mult0_mult_17_n181
*875 fb_mult0_mult_17_n180
*876 fb_mult0_mult_17_n179
*877 fb_mult0_mult_17_n177
*878 fb_mult0_mult_17_n176
*879 fb_mult0_mult_17_n175
*880 fb_mult0_mult_17_n174
*881 fb_mult0_mult_17_n173
*882 fb_mult0_mult_17_n172
*883 fb_mult0_mult_17_n171
*884 fb_mult0_mult_17_n170
*885 fb_mult0_mult_17_n169
*886 fb_mult0_mult_17_n168
*887 fb_mult0_mult_17_n166
*888 fb_mult0_mult_17_n165
*889 fb_mult0_mult_17_n164
*890 fb_mult0_mult_17_n162
*891 fb_mult0_mult_17_n161
*892 fb_mult0_mult_17_n160
*893 fb_mult0_mult_17_n159
*894 fb_mult0_mult_17_n158
*895 fb_mult0_mult_17_n157
*896 fb_mult0_mult_17_n155
*897 fb_mult0_mult_17_n153
*898 fb_mult0_mult_17_n152
*899 fb_mult0_mult_17_n151
*900 fb_mult0_mult_17_n150
*901 fb_mult0_mult_17_n149
*902 fb_mult0_mult_17_n148
*903 fb_mult0_mult_17_n147
*904 fb_mult0_mult_17_n146
*905 fb_mult0_mult_17_n142
*906 fb_mult0_mult_17_n141
*907 fb_mult0_mult_17_n140
*908 fb_mult0_mult_17_n139
*909 fb_mult0_mult_17_n121
*910 fb_mult0_mult_17_n120
*911 fb_mult0_mult_17_n119
*912 fb_mult0_mult_17_n118
*913 fb_mult0_mult_17_n117
*914 fb_mult0_mult_17_n116
*915 fb_mult0_mult_17_n115
*916 fb_mult0_mult_17_n114
*917 fb_mult0_mult_17_n113
*918 fb_mult0_mult_17_n112
*919 fb_mult0_mult_17_n111
*920 fb_mult0_mult_17_n110
*921 fb_mult0_mult_17_n109
*922 fb_mult0_mult_17_n108
*923 fb_mult0_mult_17_n107
*924 fb_mult0_mult_17_n106
*925 fb_mult0_mult_17_n105
*926 fb_mult0_mult_17_n104
*927 fb_mult0_mult_17_n103
*928 fb_mult0_mult_17_n102
*929 fb_mult0_mult_17_n101
*930 fb_mult0_mult_17_n100
*931 fb_mult0_mult_17_n99
*932 fb_mult0_mult_17_n98
*933 fb_mult0_mult_17_n97
*934 fb_mult0_mult_17_n96
*935 fb_mult0_mult_17_n95
*936 fb_mult0_mult_17_n94
*937 fb_mult0_mult_17_n93
*938 fb_mult0_mult_17_n92
*939 fb_mult0_mult_17_n91
*940 fb_mult0_mult_17_n90
*941 fb_mult0_mult_17_n89
*942 fb_mult0_mult_17_n88
*943 fb_mult0_mult_17_n87
*944 fb_mult0_mult_17_n86
*945 fb_mult0_mult_17_n85
*946 fb_mult0_mult_17_n84
*947 fb_mult0_mult_17_n83
*948 fb_mult0_mult_17_n82
*949 fb_mult0_mult_17_n81
*950 fb_mult0_mult_17_n80
*951 fb_mult0_mult_17_n79
*952 fb_mult0_mult_17_n78
*953 fb_mult0_mult_17_n77
*954 fb_mult0_mult_17_n76
*955 fb_mult0_mult_17_n75
*956 fb_mult0_mult_17_n74
*957 fb_mult0_mult_17_n73
*958 fb_mult0_mult_17_n72
*959 fb_mult0_mult_17_n70
*960 fb_mult0_mult_17_n69
*961 fb_mult0_mult_17_n68
*962 fb_mult0_mult_17_n67
*963 fb_mult0_mult_17_n66
*964 fb_mult0_mult_17_n65
*965 fb_mult0_mult_17_n64
*966 fb_mult0_mult_17_n63
*967 fb_mult0_mult_17_n62
*968 fb_mult0_mult_17_n61
*969 fb_mult0_mult_17_n60
*970 fb_mult0_mult_17_n59
*971 fb_mult0_mult_17_n58
*972 fb_mult0_mult_17_n57
*973 fb_mult0_mult_17_n56
*974 fb_mult0_mult_17_n55
*975 fb_mult0_mult_17_n54
*976 fb_mult0_mult_17_n52
*977 fb_mult0_mult_17_n51
*978 fb_mult0_mult_17_n50
*979 fb_mult0_mult_17_n49
*980 fb_mult0_mult_17_n48
*981 fb_mult0_mult_17_n47
*982 fb_mult0_mult_17_n46
*983 fb_mult0_mult_17_n45
*984 fb_mult0_mult_17_n44
*985 fb_mult0_mult_17_n43
*986 fb_mult0_mult_17_n42
*987 fb_mult0_mult_17_n41
*988 fb_mult0_mult_17_n40
*989 fb_mult0_mult_17_n38
*990 fb_mult0_mult_17_n37
*991 fb_mult0_mult_17_n36
*992 fb_mult0_mult_17_n35
*993 fb_mult0_mult_17_n34
*994 fb_mult0_mult_17_n33
*995 fb_mult0_mult_17_n32
*996 fb_mult0_mult_17_n31
*997 fb_mult0_mult_17_n30
*998 fb_mult0_mult_17_n28
*999 fb_mult0_mult_17_n27
*1000 fb_mult0_mult_17_n26
*1001 fb_mult0_mult_17_n25
*1002 fb_mult0_mult_17_n24
*1003 fb_mult0_mult_17_n11
*1004 fb_mult0_mult_17_n10
*1005 fb_mult0_mult_17_n9
*1006 fb_mult0_mult_17_n8
*1007 fb_mult0_mult_17_n7
*1008 fb_mult0_mult_17_n6
*1009 fb_mult0_mult_17_n5
*1010 fb_mult0_mult_17_n4
*1011 fb_mult1_fract_product_0_
*1012 fb_mult1_mult_17_n517
*1013 fb_mult1_mult_17_n516
*1014 fb_mult1_mult_17_n514
*1015 fb_mult1_mult_17_n513
*1016 fb_mult1_mult_17_n512
*1017 fb_mult1_mult_17_n511
*1018 fb_mult1_mult_17_n510
*1019 fb_mult1_mult_17_n509
*1020 fb_mult1_mult_17_n508
*1021 fb_mult1_mult_17_n507
*1022 fb_mult1_mult_17_n506
*1023 fb_mult1_mult_17_n505
*1024 fb_mult1_mult_17_n504
*1025 fb_mult1_mult_17_n503
*1026 fb_mult1_mult_17_n501
*1027 fb_mult1_mult_17_n499
*1028 fb_mult1_mult_17_n497
*1029 fb_mult1_mult_17_n496
*1030 fb_mult1_mult_17_n495
*1031 fb_mult1_mult_17_n494
*1032 fb_mult1_mult_17_n493
*1033 fb_mult1_mult_17_n492
*1034 fb_mult1_mult_17_n491
*1035 fb_mult1_mult_17_n490
*1036 fb_mult1_mult_17_n489
*1037 fb_mult1_mult_17_n488
*1038 fb_mult1_mult_17_n487
*1039 fb_mult1_mult_17_n486
*1040 fb_mult1_mult_17_n485
*1041 fb_mult1_mult_17_n484
*1042 fb_mult1_mult_17_n483
*1043 fb_mult1_mult_17_n482
*1044 fb_mult1_mult_17_n481
*1045 fb_mult1_mult_17_n480
*1046 fb_mult1_mult_17_n479
*1047 fb_mult1_mult_17_n478
*1048 fb_mult1_mult_17_n477
*1049 fb_mult1_mult_17_n476
*1050 fb_mult1_mult_17_n475
*1051 fb_mult1_mult_17_n474
*1052 fb_mult1_mult_17_n473
*1053 fb_mult1_mult_17_n472
*1054 fb_mult1_mult_17_n471
*1055 fb_mult1_mult_17_n470
*1056 fb_mult1_mult_17_n469
*1057 fb_mult1_mult_17_n468
*1058 fb_mult1_mult_17_n467
*1059 fb_mult1_mult_17_n466
*1060 fb_mult1_mult_17_n465
*1061 fb_mult1_mult_17_n464
*1062 fb_mult1_mult_17_n463
*1063 fb_mult1_mult_17_n462
*1064 fb_mult1_mult_17_n461
*1065 fb_mult1_mult_17_n460
*1066 fb_mult1_mult_17_n459
*1067 fb_mult1_mult_17_n458
*1068 fb_mult1_mult_17_n457
*1069 fb_mult1_mult_17_n456
*1070 fb_mult1_mult_17_n455
*1071 fb_mult1_mult_17_n454
*1072 fb_mult1_mult_17_n453
*1073 fb_mult1_mult_17_n452
*1074 fb_mult1_mult_17_n451
*1075 fb_mult1_mult_17_n450
*1076 fb_mult1_mult_17_n449
*1077 fb_mult1_mult_17_n448
*1078 fb_mult1_mult_17_n447
*1079 fb_mult1_mult_17_n446
*1080 fb_mult1_mult_17_n445
*1081 fb_mult1_mult_17_n444
*1082 fb_mult1_mult_17_n443
*1083 fb_mult1_mult_17_n442
*1084 fb_mult1_mult_17_n441
*1085 fb_mult1_mult_17_n440
*1086 fb_mult1_mult_17_n439
*1087 fb_mult1_mult_17_n438
*1088 fb_mult1_mult_17_n437
*1089 fb_mult1_mult_17_n436
*1090 fb_mult1_mult_17_n435
*1091 fb_mult1_mult_17_n434
*1092 fb_mult1_mult_17_n433
*1093 fb_mult1_mult_17_n432
*1094 fb_mult1_mult_17_n431
*1095 fb_mult1_mult_17_n430
*1096 fb_mult1_mult_17_n429
*1097 fb_mult1_mult_17_n428
*1098 fb_mult1_mult_17_n427
*1099 fb_mult1_mult_17_n426
*1100 fb_mult1_mult_17_n425
*1101 fb_mult1_mult_17_n424
*1102 fb_mult1_mult_17_n423
*1103 fb_mult1_mult_17_n422
*1104 fb_mult1_mult_17_n421
*1105 fb_mult1_mult_17_n420
*1106 fb_mult1_mult_17_n419
*1107 fb_mult1_mult_17_n418
*1108 fb_mult1_mult_17_n417
*1109 fb_mult1_mult_17_n416
*1110 fb_mult1_mult_17_n414
*1111 fb_mult1_mult_17_n413
*1112 fb_mult1_mult_17_n412
*1113 fb_mult1_mult_17_n411
*1114 fb_mult1_mult_17_n410
*1115 fb_mult1_mult_17_n409
*1116 fb_mult1_mult_17_n408
*1117 fb_mult1_mult_17_n407
*1118 fb_mult1_mult_17_n406
*1119 fb_mult1_mult_17_n405
*1120 fb_mult1_mult_17_n404
*1121 fb_mult1_mult_17_n403
*1122 fb_mult1_mult_17_n402
*1123 fb_mult1_mult_17_n401
*1124 fb_mult1_mult_17_n400
*1125 fb_mult1_mult_17_n399
*1126 fb_mult1_mult_17_n398
*1127 fb_mult1_mult_17_n397
*1128 fb_mult1_mult_17_n396
*1129 fb_mult1_mult_17_n395
*1130 fb_mult1_mult_17_n394
*1131 fb_mult1_mult_17_n393
*1132 fb_mult1_mult_17_n392
*1133 fb_mult1_mult_17_n391
*1134 fb_mult1_mult_17_n384
*1135 fb_mult1_mult_17_n383
*1136 fb_mult1_mult_17_n382
*1137 fb_mult1_mult_17_n208
*1138 fb_mult1_mult_17_n207
*1139 fb_mult1_mult_17_n206
*1140 fb_mult1_mult_17_n205
*1141 fb_mult1_mult_17_n204
*1142 fb_mult1_mult_17_n203
*1143 fb_mult1_mult_17_n202
*1144 fb_mult1_mult_17_n201
*1145 fb_mult1_mult_17_n198
*1146 fb_mult1_mult_17_n197
*1147 fb_mult1_mult_17_n196
*1148 fb_mult1_mult_17_n195
*1149 fb_mult1_mult_17_n194
*1150 fb_mult1_mult_17_n193
*1151 fb_mult1_mult_17_n192
*1152 fb_mult1_mult_17_n191
*1153 fb_mult1_mult_17_n190
*1154 fb_mult1_mult_17_n188
*1155 fb_mult1_mult_17_n187
*1156 fb_mult1_mult_17_n186
*1157 fb_mult1_mult_17_n185
*1158 fb_mult1_mult_17_n184
*1159 fb_mult1_mult_17_n183
*1160 fb_mult1_mult_17_n182
*1161 fb_mult1_mult_17_n181
*1162 fb_mult1_mult_17_n180
*1163 fb_mult1_mult_17_n179
*1164 fb_mult1_mult_17_n177
*1165 fb_mult1_mult_17_n176
*1166 fb_mult1_mult_17_n175
*1167 fb_mult1_mult_17_n174
*1168 fb_mult1_mult_17_n173
*1169 fb_mult1_mult_17_n172
*1170 fb_mult1_mult_17_n171
*1171 fb_mult1_mult_17_n170
*1172 fb_mult1_mult_17_n169
*1173 fb_mult1_mult_17_n168
*1174 fb_mult1_mult_17_n166
*1175 fb_mult1_mult_17_n165
*1176 fb_mult1_mult_17_n164
*1177 fb_mult1_mult_17_n162
*1178 fb_mult1_mult_17_n161
*1179 fb_mult1_mult_17_n160
*1180 fb_mult1_mult_17_n159
*1181 fb_mult1_mult_17_n158
*1182 fb_mult1_mult_17_n157
*1183 fb_mult1_mult_17_n155
*1184 fb_mult1_mult_17_n153
*1185 fb_mult1_mult_17_n152
*1186 fb_mult1_mult_17_n151
*1187 fb_mult1_mult_17_n150
*1188 fb_mult1_mult_17_n149
*1189 fb_mult1_mult_17_n148
*1190 fb_mult1_mult_17_n147
*1191 fb_mult1_mult_17_n146
*1192 fb_mult1_mult_17_n142
*1193 fb_mult1_mult_17_n141
*1194 fb_mult1_mult_17_n140
*1195 fb_mult1_mult_17_n139
*1196 fb_mult1_mult_17_n121
*1197 fb_mult1_mult_17_n120
*1198 fb_mult1_mult_17_n119
*1199 fb_mult1_mult_17_n118
*1200 fb_mult1_mult_17_n117
*1201 fb_mult1_mult_17_n116
*1202 fb_mult1_mult_17_n115
*1203 fb_mult1_mult_17_n114
*1204 fb_mult1_mult_17_n113
*1205 fb_mult1_mult_17_n112
*1206 fb_mult1_mult_17_n111
*1207 fb_mult1_mult_17_n110
*1208 fb_mult1_mult_17_n109
*1209 fb_mult1_mult_17_n108
*1210 fb_mult1_mult_17_n107
*1211 fb_mult1_mult_17_n106
*1212 fb_mult1_mult_17_n105
*1213 fb_mult1_mult_17_n104
*1214 fb_mult1_mult_17_n103
*1215 fb_mult1_mult_17_n102
*1216 fb_mult1_mult_17_n101
*1217 fb_mult1_mult_17_n100
*1218 fb_mult1_mult_17_n99
*1219 fb_mult1_mult_17_n98
*1220 fb_mult1_mult_17_n97
*1221 fb_mult1_mult_17_n96
*1222 fb_mult1_mult_17_n95
*1223 fb_mult1_mult_17_n94
*1224 fb_mult1_mult_17_n93
*1225 fb_mult1_mult_17_n92
*1226 fb_mult1_mult_17_n91
*1227 fb_mult1_mult_17_n90
*1228 fb_mult1_mult_17_n89
*1229 fb_mult1_mult_17_n88
*1230 fb_mult1_mult_17_n87
*1231 fb_mult1_mult_17_n86
*1232 fb_mult1_mult_17_n85
*1233 fb_mult1_mult_17_n84
*1234 fb_mult1_mult_17_n83
*1235 fb_mult1_mult_17_n82
*1236 fb_mult1_mult_17_n81
*1237 fb_mult1_mult_17_n80
*1238 fb_mult1_mult_17_n79
*1239 fb_mult1_mult_17_n78
*1240 fb_mult1_mult_17_n77
*1241 fb_mult1_mult_17_n76
*1242 fb_mult1_mult_17_n75
*1243 fb_mult1_mult_17_n74
*1244 fb_mult1_mult_17_n73
*1245 fb_mult1_mult_17_n72
*1246 fb_mult1_mult_17_n70
*1247 fb_mult1_mult_17_n69
*1248 fb_mult1_mult_17_n68
*1249 fb_mult1_mult_17_n67