*SPEF "IEEE 1481-1998"
*DESIGN "IIR_FILTER_ADV"
*DATE "Thu Nov 19 00:57:29 2020"
*VENDOR "Cadence Design Systems, Inc."
*PROGRAM "Innovus"
*VERSION "17.11-s080_1"
*DESIGN_FLOW "COUPLING C" "PIN_CAP NONE" "NAME_SCOPE LOCAL"
*DIVIDER /
*DELIMITER :
*BUS_DELIMITER []
*T_UNIT 1 NS
*C_UNIT 1 PF
*R_UNIT 1 OHM
*L_UNIT 1 HENRY

// MMMC spef file for corner 'my_rc'

*NAME_MAP

*1 din[10]
*2 din[9]
*3 din[8]
*4 din[7]
*5 din[6]
*6 din[5]
*7 din[4]
*8 din[3]
*9 din[2]
*10 din[1]
*11 din[0]
*12 b0[10]
*13 b0[9]
*14 b0[8]
*15 b0[7]
*16 b0[6]
*17 b0[5]
*18 b0[4]
*19 b0[3]
*20 b0[2]
*21 b0[1]
*22 b0[0]
*23 b1[10]
*24 b1[9]
*25 b1[8]
*26 b1[7]
*27 b1[6]
*28 b1[5]
*29 b1[4]
*30 b1[3]
*31 b1[2]
*32 b1[1]
*33 b1[0]
*34 b2[10]
*35 b2[9]
*36 b2[8]
*37 b2[7]
*38 b2[6]
*39 b2[5]
*40 b2[4]
*41 b2[3]
*42 b2[2]
*43 b2[1]
*44 b2[0]
*45 a1_neg[10]
*46 a1_neg[9]
*47 a1_neg[8]
*48 a1_neg[7]
*49 a1_neg[6]
*50 a1_neg[5]
*51 a1_neg[4]
*52 a1_neg[3]
*53 a1_neg[2]
*54 a1_neg[1]
*55 a1_neg[0]
*56 a1_2_a2[10]
*57 a1_2_a2[9]
*58 a1_2_a2[8]
*59 a1_2_a2[7]
*60 a1_2_a2[6]
*61 a1_2_a2[5]
*62 a1_2_a2[4]
*63 a1_2_a2[3]
*64 a1_2_a2[2]
*65 a1_2_a2[1]
*66 a1_2_a2[0]
*67 a1a2[10]
*68 a1a2[9]
*69 a1a2[8]
*70 a1a2[7]
*71 a1a2[6]
*72 a1a2[5]
*73 a1a2[4]
*74 a1a2[3]
*75 a1a2[2]
*76 a1a2[1]
*77 a1a2[0]
*78 clk
*79 vin
*80 rst_n
*81 dout[10]
*82 dout[9]
*83 dout[8]
*84 dout[7]
*85 dout[6]
*86 dout[5]
*87 dout[4]
*88 dout[3]
*89 dout[2]
*90 dout[1]
*91 dout[0]
*92 vout
*93 FE_OFN27_a1_2_a2_mult_mult_17_n488
*94 FE_OFN26_y_mult_mult_17_n492
*95 FE_OFN25_ff_mult1_mult_17_n486
*96 FE_OFN24_ff_mult0_mult_17_n492
*97 FE_OFN23_rst_n
*98 FE_OFN22_rst_n
*99 FE_OFN21_rst_n
*100 FE_OFN20_rst_n
*101 FE_OFN19_vin
*102 FE_OFN18_vin
*103 FE_OFN17_vin
*104 FE_OFN16_a1a2_mult_mult_17_n486
*105 FE_OFN15_xa1_mult_mult_17_n486
*106 FE_OFN14_sw1_1
*107 FE_OFN13_sw1_9
*108 FE_OFN12_sw1_7
*109 FE_OFN11_sw1_10
*110 FE_OFN10_sw1_3
*111 FE_OFN9_sw1_5
*112 FE_OFN8_vout_tmp1
*113 FE_OFN7_sw0_3
*114 FE_OFN6_sw0_7
*115 FE_OFN5_sw0_9
*116 FE_OFN4_sw0_5
*117 FE_OFN3_sw0_1
*118 FE_OFN2_sw0_10
*119 FE_OFN1_vout_tmp3
*120 FE_OFN0_vout_tmp2
*121 FE_DBTN5_sw0_0
*122 FE_DBTN4_sw0_9
*123 FE_DBTN3_sw0_7
*124 FE_DBTN2_sw0_5
*125 FE_DBTN1_sw0_3
*126 FE_DBTN0_sw1_0
*127 vout_tmp1
*128 vout_tmp2
*129 vout_tmp3
*130 vout_tmp4
*131 din_reg_n33
*132 din_reg_n32
*133 din_reg_n31
*134 din_reg_n30
*135 din_reg_n29
*136 din_reg_n28
*137 din_reg_n27
*138 din_reg_n26
*139 din_reg_n25
*140 din_reg_n24
*141 din_reg_n23
*142 din_reg_n22
*143 din_reg_n21
*144 din_reg_n20
*145 din_reg_n19
*146 din_reg_n18
*147 din_reg_n17
*148 din_reg_n16
*149 din_reg_n15
*150 din_reg_n14
*151 din_reg_n13
*152 din_reg_n12
*153 din_reg_n11
*154 din_reg_n10
*155 din_reg_n9
*156 din_reg_n8
*157 din_reg_n7
*158 din_reg_n6
*159 din_reg_n5
*160 din_reg_n4
*161 din_reg_n3
*162 din_reg_n2
*163 din_reg_n1
*164 b0_reg_n68
*165 b0_reg_n67
*166 b0_reg_n66
*167 b0_reg_n65
*168 b0_reg_n64
*169 b0_reg_n63
*170 b0_reg_n62
*171 b0_reg_n61
*172 b0_reg_n60
*173 b0_reg_n59
*174 b0_reg_n58
*175 b0_reg_n57
*176 b0_reg_n56
*177 b0_reg_n55
*178 b0_reg_n54
*179 b0_reg_n53
*180 b0_reg_n52
*181 b0_reg_n51
*182 b0_reg_n50
*183 b0_reg_n49
*184 b0_reg_n48
*185 b0_reg_n47
*186 b0_reg_n46
*187 b0_reg_n45
*188 b0_reg_n44
*189 b0_reg_n43
*190 b0_reg_n42
*191 b0_reg_n41
*192 b0_reg_n40
*193 b0_reg_n39
*194 b0_reg_n38
*195 b0_reg_n37
*196 b0_reg_n36
*197 b1_reg_n68
*198 b1_reg_n67
*199 b1_reg_n66
*200 b1_reg_n65
*201 b1_reg_n64
*202 b1_reg_n63
*203 b1_reg_n62
*204 b1_reg_n61
*205 b1_reg_n60
*206 b1_reg_n59
*207 b1_reg_n58
*208 b1_reg_n57
*209 b1_reg_n56
*210 b1_reg_n55
*211 b1_reg_n54
*212 b1_reg_n53
*213 b1_reg_n52
*214 b1_reg_n51
*215 b1_reg_n50
*216 b1_reg_n49
*217 b1_reg_n48
*218 b1_reg_n47
*219 b1_reg_n46
*220 b1_reg_n45
*221 b1_reg_n44
*222 b1_reg_n43
*223 b1_reg_n42
*224 b1_reg_n41
*225 b1_reg_n40
*226 b1_reg_n39
*227 b1_reg_n38
*228 b1_reg_n37
*229 b1_reg_n36
*230 b2_reg_n68
*231 b2_reg_n67
*232 b2_reg_n66
*233 b2_reg_n65
*234 b2_reg_n64
*235 b2_reg_n63
*236 b2_reg_n62
*237 b2_reg_n61
*238 b2_reg_n60
*239 b2_reg_n59
*240 b2_reg_n58
*241 b2_reg_n57
*242 b2_reg_n56
*243 b2_reg_n55
*244 b2_reg_n54
*245 b2_reg_n53
*246 b2_reg_n52
*247 b2_reg_n51
*248 b2_reg_n50
*249 b2_reg_n49
*250 b2_reg_n48
*251 b2_reg_n47
*252 b2_reg_n46
*253 b2_reg_n45
*254 b2_reg_n44
*255 b2_reg_n43
*256 b2_reg_n42
*257 b2_reg_n41
*258 b2_reg_n40
*259 b2_reg_n39
*260 b2_reg_n38
*261 b2_reg_n37
*262 b2_reg_n36
*263 a1_neg_reg_n68
*264 a1_neg_reg_n67
*265 a1_neg_reg_n66
*266 a1_neg_reg_n65
*267 a1_neg_reg_n64
*268 a1_neg_reg_n63
*269 a1_neg_reg_n62
*270 a1_neg_reg_n61
*271 a1_neg_reg_n60
*272 a1_neg_reg_n59
*273 a1_neg_reg_n58
*274 a1_neg_reg_n57
*275 a1_neg_reg_n56
*276 a1_neg_reg_n55
*277 a1_neg_reg_n54
*278 a1_neg_reg_n53
*279 a1_neg_reg_n52
*280 a1_neg_reg_n51
*281 a1_neg_reg_n50
*282 a1_neg_reg_n49
*283 a1_neg_reg_n48
*284 a1_neg_reg_n47
*285 a1_neg_reg_n46
*286 a1_neg_reg_n45
*287 a1_neg_reg_n44
*288 a1_neg_reg_n43
*289 a1_neg_reg_n42
*290 a1_neg_reg_n41
*291 a1_neg_reg_n40
*292 a1_neg_reg_n39
*293 a1_neg_reg_n38
*294 a1_neg_reg_n37
*295 a1_neg_reg_n36
*296 a1_2_a2_reg_n68
*297 a1_2_a2_reg_n67
*298 a1_2_a2_reg_n66
*299 a1_2_a2_reg_n65
*300 a1_2_a2_reg_n64
*301 a1_2_a2_reg_n63
*302 a1_2_a2_reg_n62
*303 a1_2_a2_reg_n61
*304 a1_2_a2_reg_n60
*305 a1_2_a2_reg_n59
*306 a1_2_a2_reg_n58
*307 a1_2_a2_reg_n57
*308 a1_2_a2_reg_n56
*309 a1_2_a2_reg_n55
*310 a1_2_a2_reg_n54
*311 a1_2_a2_reg_n53
*312 a1_2_a2_reg_n52
*313 a1_2_a2_reg_n51
*314 a1_2_a2_reg_n50
*315 a1_2_a2_reg_n49
*316 a1_2_a2_reg_n48
*317 a1_2_a2_reg_n47
*318 a1_2_a2_reg_n46
*319 a1_2_a2_reg_n45
*320 a1_2_a2_reg_n44
*321 a1_2_a2_reg_n43
*322 a1_2_a2_reg_n42
*323 a1_2_a2_reg_n41
*324 a1_2_a2_reg_n40
*325 a1_2_a2_reg_n39
*326 a1_2_a2_reg_n38
*327 a1_2_a2_reg_n37
*328 a1_2_a2_reg_n36
*329 a1a2_reg_n68
*330 a1a2_reg_n67
*331 a1a2_reg_n66
*332 a1a2_reg_n65
*333 a1a2_reg_n64
*334 a1a2_reg_n63
*335 a1a2_reg_n62
*336 a1a2_reg_n61
*337 a1a2_reg_n60
*338 a1a2_reg_n59
*339 a1a2_reg_n58
*340 a1a2_reg_n57
*341 a1a2_reg_n56
*342 a1a2_reg_n55
*343 a1a2_reg_n54
*344 a1a2_reg_n53
*345 a1a2_reg_n52
*346 a1a2_reg_n51
*347 a1a2_reg_n50
*348 a1a2_reg_n49
*349 a1a2_reg_n48
*350 a1a2_reg_n47
*351 a1a2_reg_n46
*352 a1a2_reg_n45
*353 a1a2_reg_n44
*354 a1a2_reg_n43
*355 a1a2_reg_n42
*356 a1a2_reg_n41
*357 a1a2_reg_n40
*358 a1a2_reg_n39
*359 a1a2_reg_n38
*360 a1a2_reg_n37
*361 a1a2_reg_n36
*362 xa1_mult_fract_product_0_
*363 xa1_mult_mult_17_n515
*364 xa1_mult_mult_17_n514
*365 xa1_mult_mult_17_n513
*366 xa1_mult_mult_17_n512
*367 xa1_mult_mult_17_n511
*368 xa1_mult_mult_17_n510
*369 xa1_mult_mult_17_n509
*370 xa1_mult_mult_17_n508
*371 xa1_mult_mult_17_n507
*372 xa1_mult_mult_17_n506
*373 xa1_mult_mult_17_n505
*374 xa1_mult_mult_17_n504
*375 xa1_mult_mult_17_n503
*376 xa1_mult_mult_17_n502
*377 xa1_mult_mult_17_n501
*378 xa1_mult_mult_17_n500
*379 xa1_mult_mult_17_n499
*380 xa1_mult_mult_17_n498
*381 xa1_mult_mult_17_n497
*382 xa1_mult_mult_17_n496
*383 xa1_mult_mult_17_n495
*384 xa1_mult_mult_17_n494
*385 xa1_mult_mult_17_n493
*386 xa1_mult_mult_17_n492
*387 xa1_mult_mult_17_n491
*388 xa1_mult_mult_17_n490
*389 xa1_mult_mult_17_n489
*390 xa1_mult_mult_17_n488
*391 xa1_mult_mult_17_n487
*392 xa1_mult_mult_17_n486
*393 xa1_mult_mult_17_n485
*394 xa1_mult_mult_17_n484
*395 xa1_mult_mult_17_n483
*396 xa1_mult_mult_17_n482
*397 xa1_mult_mult_17_n481
*398 xa1_mult_mult_17_n480
*399 xa1_mult_mult_17_n479
*400 xa1_mult_mult_17_n478
*401 xa1_mult_mult_17_n477
*402 xa1_mult_mult_17_n476
*403 xa1_mult_mult_17_n475
*404 xa1_mult_mult_17_n474
*405 xa1_mult_mult_17_n473
*406 xa1_mult_mult_17_n472
*407 xa1_mult_mult_17_n471
*408 xa1_mult_mult_17_n470
*409 xa1_mult_mult_17_n469
*410 xa1_mult_mult_17_n468
*411 xa1_mult_mult_17_n467
*412 xa1_mult_mult_17_n466
*413 xa1_mult_mult_17_n465
*414 xa1_mult_mult_17_n464
*415 xa1_mult_mult_17_n463
*416 xa1_mult_mult_17_n462
*417 xa1_mult_mult_17_n461
*418 xa1_mult_mult_17_n460
*419 xa1_mult_mult_17_n459
*420 xa1_mult_mult_17_n458
*421 xa1_mult_mult_17_n457
*422 xa1_mult_mult_17_n456
*423 xa1_mult_mult_17_n455
*424 xa1_mult_mult_17_n454
*425 xa1_mult_mult_17_n453
*426 xa1_mult_mult_17_n452
*427 xa1_mult_mult_17_n451
*428 xa1_mult_mult_17_n450
*429 xa1_mult_mult_17_n449
*430 xa1_mult_mult_17_n448
*431 xa1_mult_mult_17_n447
*432 xa1_mult_mult_17_n446
*433 xa1_mult_mult_17_n445
*434 xa1_mult_mult_17_n444
*435 xa1_mult_mult_17_n443
*436 xa1_mult_mult_17_n442
*437 xa1_mult_mult_17_n441
*438 xa1_mult_mult_17_n440
*439 xa1_mult_mult_17_n439
*440 xa1_mult_mult_17_n438
*441 xa1_mult_mult_17_n437
*442 xa1_mult_mult_17_n436
*443 xa1_mult_mult_17_n435
*444 xa1_mult_mult_17_n434
*445 xa1_mult_mult_17_n433
*446 xa1_mult_mult_17_n432
*447 xa1_mult_mult_17_n431
*448 xa1_mult_mult_17_n430
*449 xa1_mult_mult_17_n429
*450 xa1_mult_mult_17_n428
*451 xa1_mult_mult_17_n427
*452 xa1_mult_mult_17_n426
*453 xa1_mult_mult_17_n425
*454 xa1_mult_mult_17_n424
*455 xa1_mult_mult_17_n423
*456 xa1_mult_mult_17_n422
*457 xa1_mult_mult_17_n421
*458 xa1_mult_mult_17_n420
*459 xa1_mult_mult_17_n419
*460 xa1_mult_mult_17_n418
*461 xa1_mult_mult_17_n417
*462 xa1_mult_mult_17_n416
*463 xa1_mult_mult_17_n415
*464 xa1_mult_mult_17_n414
*465 xa1_mult_mult_17_n413
*466 xa1_mult_mult_17_n412
*467 xa1_mult_mult_17_n411
*468 xa1_mult_mult_17_n410
*469 xa1_mult_mult_17_n409
*470 xa1_mult_mult_17_n408
*471 xa1_mult_mult_17_n407
*472 xa1_mult_mult_17_n406
*473 xa1_mult_mult_17_n405
*474 xa1_mult_mult_17_n404
*475 xa1_mult_mult_17_n403
*476 xa1_mult_mult_17_n402
*477 xa1_mult_mult_17_n401
*478 xa1_mult_mult_17_n400
*479 xa1_mult_mult_17_n399
*480 xa1_mult_mult_17_n398
*481 xa1_mult_mult_17_n397
*482 xa1_mult_mult_17_n396
*483 xa1_mult_mult_17_n395
*484 xa1_mult_mult_17_n394
*485 xa1_mult_mult_17_n393
*486 xa1_mult_mult_17_n392
*487 xa1_mult_mult_17_n391
*488 xa1_mult_mult_17_n390
*489 xa1_mult_mult_17_n389
*490 xa1_mult_mult_17_n388
*491 xa1_mult_mult_17_n387
*492 xa1_mult_mult_17_n386
*493 xa1_mult_mult_17_n385
*494 xa1_mult_mult_17_n384
*495 xa1_mult_mult_17_n383
*496 xa1_mult_mult_17_n382
*497 xa1_mult_mult_17_n208
*498 xa1_mult_mult_17_n207
*499 xa1_mult_mult_17_n206
*500 xa1_mult_mult_17_n205
*501 xa1_mult_mult_17_n204
*502 xa1_mult_mult_17_n203
*503 xa1_mult_mult_17_n202
*504 xa1_mult_mult_17_n201
*505 xa1_mult_mult_17_n198
*506 xa1_mult_mult_17_n197
*507 xa1_mult_mult_17_n196
*508 xa1_mult_mult_17_n195
*509 xa1_mult_mult_17_n194
*510 xa1_mult_mult_17_n193
*511 xa1_mult_mult_17_n192
*512 xa1_mult_mult_17_n191
*513 xa1_mult_mult_17_n190
*514 xa1_mult_mult_17_n188
*515 xa1_mult_mult_17_n187
*516 xa1_mult_mult_17_n186
*517 xa1_mult_mult_17_n185
*518 xa1_mult_mult_17_n184
*519 xa1_mult_mult_17_n183
*520 xa1_mult_mult_17_n182
*521 xa1_mult_mult_17_n181
*522 xa1_mult_mult_17_n180
*523 xa1_mult_mult_17_n179
*524 xa1_mult_mult_17_n177
*525 xa1_mult_mult_17_n176
*526 xa1_mult_mult_17_n175
*527 xa1_mult_mult_17_n174
*528 xa1_mult_mult_17_n173
*529 xa1_mult_mult_17_n172
*530 xa1_mult_mult_17_n171
*531 xa1_mult_mult_17_n170
*532 xa1_mult_mult_17_n169
*533 xa1_mult_mult_17_n168
*534 xa1_mult_mult_17_n166
*535 xa1_mult_mult_17_n165
*536 xa1_mult_mult_17_n164
*537 xa1_mult_mult_17_n162
*538 xa1_mult_mult_17_n161
*539 xa1_mult_mult_17_n160
*540 xa1_mult_mult_17_n159
*541 xa1_mult_mult_17_n158
*542 xa1_mult_mult_17_n157
*543 xa1_mult_mult_17_n155
*544 xa1_mult_mult_17_n153
*545 xa1_mult_mult_17_n152
*546 xa1_mult_mult_17_n151
*547 xa1_mult_mult_17_n150
*548 xa1_mult_mult_17_n149
*549 xa1_mult_mult_17_n148
*550 xa1_mult_mult_17_n147
*551 xa1_mult_mult_17_n146
*552 xa1_mult_mult_17_n142
*553 xa1_mult_mult_17_n141
*554 xa1_mult_mult_17_n140
*555 xa1_mult_mult_17_n139
*556 xa1_mult_mult_17_n121
*557 xa1_mult_mult_17_n120
*558 xa1_mult_mult_17_n119
*559 xa1_mult_mult_17_n118
*560 xa1_mult_mult_17_n117
*561 xa1_mult_mult_17_n116
*562 xa1_mult_mult_17_n115
*563 xa1_mult_mult_17_n114
*564 xa1_mult_mult_17_n113
*565 xa1_mult_mult_17_n112
*566 xa1_mult_mult_17_n111
*567 xa1_mult_mult_17_n110
*568 xa1_mult_mult_17_n109
*569 xa1_mult_mult_17_n108
*570 xa1_mult_mult_17_n107
*571 xa1_mult_mult_17_n106
*572 xa1_mult_mult_17_n105
*573 xa1_mult_mult_17_n104
*574 xa1_mult_mult_17_n103
*575 xa1_mult_mult_17_n102
*576 xa1_mult_mult_17_n101
*577 xa1_mult_mult_17_n100
*578 xa1_mult_mult_17_n99
*579 xa1_mult_mult_17_n98
*580 xa1_mult_mult_17_n97
*581 xa1_mult_mult_17_n96
*582 xa1_mult_mult_17_n95
*583 xa1_mult_mult_17_n94
*584 xa1_mult_mult_17_n93
*585 xa1_mult_mult_17_n92
*586 xa1_mult_mult_17_n91
*587 xa1_mult_mult_17_n90
*588 xa1_mult_mult_17_n89
*589 xa1_mult_mult_17_n88
*590 xa1_mult_mult_17_n87
*591 xa1_mult_mult_17_n86
*592 xa1_mult_mult_17_n85
*593 xa1_mult_mult_17_n84
*594 xa1_mult_mult_17_n83
*595 xa1_mult_mult_17_n82
*596 xa1_mult_mult_17_n81
*597 xa1_mult_mult_17_n80
*598 xa1_mult_mult_17_n79
*599 xa1_mult_mult_17_n78
*600 xa1_mult_mult_17_n77
*601 xa1_mult_mult_17_n76
*602 xa1_mult_mult_17_n75
*603 xa1_mult_mult_17_n74
*604 xa1_mult_mult_17_n73
*605 xa1_mult_mult_17_n72
*606 xa1_mult_mult_17_n70
*607 xa1_mult_mult_17_n69
*608 xa1_mult_mult_17_n68
*609 xa1_mult_mult_17_n67
*610 xa1_mult_mult_17_n66
*611 xa1_mult_mult_17_n65
*612 xa1_mult_mult_17_n64
*613 xa1_mult_mult_17_n63
*614 xa1_mult_mult_17_n62
*615 xa1_mult_mult_17_n61
*616 xa1_mult_mult_17_n60
*617 xa1_mult_mult_17_n59
*618 xa1_mult_mult_17_n58
*619 xa1_mult_mult_17_n57
*620 xa1_mult_mult_17_n56
*621 xa1_mult_mult_17_n55
*622 xa1_mult_mult_17_n54
*623 xa1_mult_mult_17_n52
*624 xa1_mult_mult_17_n51
*625 xa1_mult_mult_17_n50
*626 xa1_mult_mult_17_n49
*627 xa1_mult_mult_17_n48
*628 xa1_mult_mult_17_n47
*629 xa1_mult_mult_17_n46
*630 xa1_mult_mult_17_n45
*631 xa1_mult_mult_17_n44
*632 xa1_mult_mult_17_n43
*633 xa1_mult_mult_17_n42
*634 xa1_mult_mult_17_n41
*635 xa1_mult_mult_17_n40
*636 xa1_mult_mult_17_n38
*637 xa1_mult_mult_17_n37
*638 xa1_mult_mult_17_n36
*639 xa1_mult_mult_17_n35
*640 xa1_mult_mult_17_n34
*641 xa1_mult_mult_17_n33
*642 xa1_mult_mult_17_n32
*643 xa1_mult_mult_17_n31
*644 xa1_mult_mult_17_n30
*645 xa1_mult_mult_17_n28
*646 xa1_mult_mult_17_n27
*647 xa1_mult_mult_17_n26
*648 xa1_mult_mult_17_n25
*649 xa1_mult_mult_17_n24
*650 xa1_mult_mult_17_n11
*651 xa1_mult_mult_17_n10
*652 xa1_mult_mult_17_n9
*653 xa1_mult_mult_17_n8
*654 xa1_mult_mult_17_n7
*655 xa1_mult_mult_17_n6
*656 xa1_mult_mult_17_n5
*657 xa1_mult_mult_17_n4
*658 a1x1_reg_n27
*659 a1x1_reg_n26
*660 a1x1_reg_n25
*661 a1x1_reg_n24
*662 a1x1_reg_n23
*663 a1x1_reg_n22
*664 a1x1_reg_n21
*665 a1x1_reg_n20
*666 a1x1_reg_n19
*667 a1x1_reg_n18
*668 a1x1_reg_n17
*669 a1x1_reg_n16
*670 a1x1_reg_n15
*671 a1x1_reg_n14
*672 a1x1_reg_n13
*673 a1x1_reg_n12
*674 a1x1_reg_n11
*675 a1x1_reg_n10
*676 a1x1_reg_n9
*677 a1x1_reg_n8
*678 a1x1_reg_n7
*679 a1x1_reg_n6
*680 a1x1_reg_n5
*681 a1x1_reg_n4
*682 a1x1_reg_n3
*683 a1x1_reg_n2
*684 a1x1_reg_n1
*685 x1a1_add_add_16_n2
*686 x1a1add_reg_n68
*687 x1a1add_reg_n67
*688 x1a1add_reg_n66
*689 x1a1add_reg_n65
*690 x1a1add_reg_n64
*691 x1a1add_reg_n63
*692 x1a1add_reg_n62
*693 x1a1add_reg_n61
*694 x1a1add_reg_n60
*695 x1a1add_reg_n59
*696 x1a1add_reg_n58
*697 x1a1add_reg_n57
*698 x1a1add_reg_n56
*699 x1a1add_reg_n55
*700 x1a1add_reg_n54
*701 x1a1add_reg_n53
*702 x1a1add_reg_n52
*703 x1a1add_reg_n51
*704 x1a1add_reg_n50
*705 x1a1add_reg_n49
*706 x1a1add_reg_n48
*707 x1a1add_reg_n47
*708 x1a1add_reg_n46
*709 x1a1add_reg_n45
*710 x1a1add_reg_n44
*711 x1a1add_reg_n43
*712 x1a1add_reg_n42
*713 x1a1add_reg_n41
*714 x1a1add_reg_n40
*715 x1a1add_reg_n39
*716 x1a1add_reg_n38
*717 x1a1add_reg_n37
*718 x1a1add_reg_n36
*719 a1_2_a2_mult_fract_product_0_
*720 a1_2_a2_mult_mult_17_n517
*721 a1_2_a2_mult_mult_17_n516
*722 a1_2_a2_mult_mult_17_n515
*723 a1_2_a2_mult_mult_17_n514
*724 a1_2_a2_mult_mult_17_n513
*725 a1_2_a2_mult_mult_17_n512
*726 a1_2_a2_mult_mult_17_n511
*727 a1_2_a2_mult_mult_17_n510
*728 a1_2_a2_mult_mult_17_n509
*729 a1_2_a2_mult_mult_17_n508
*730 a1_2_a2_mult_mult_17_n507
*731 a1_2_a2_mult_mult_17_n506
*732 a1_2_a2_mult_mult_17_n505
*733 a1_2_a2_mult_mult_17_n504
*734 a1_2_a2_mult_mult_17_n503
*735 a1_2_a2_mult_mult_17_n502
*736 a1_2_a2_mult_mult_17_n501
*737 a1_2_a2_mult_mult_17_n500
*738 a1_2_a2_mult_mult_17_n499
*739 a1_2_a2_mult_mult_17_n498
*740 a1_2_a2_mult_mult_17_n497
*741 a1_2_a2_mult_mult_17_n496
*742 a1_2_a2_mult_mult_17_n495
*743 a1_2_a2_mult_mult_17_n494
*744 a1_2_a2_mult_mult_17_n493
*745 a1_2_a2_mult_mult_17_n492
*746 a1_2_a2_mult_mult_17_n491
*747 a1_2_a2_mult_mult_17_n490
*748 a1_2_a2_mult_mult_17_n489
*749 a1_2_a2_mult_mult_17_n488
*750 a1_2_a2_mult_mult_17_n487
*751 a1_2_a2_mult_mult_17_n486
*752 a1_2_a2_mult_mult_17_n485
*753 a1_2_a2_mult_mult_17_n484
*754 a1_2_a2_mult_mult_17_n483
*755 a1_2_a2_mult_mult_17_n482
*756 a1_2_a2_mult_mult_17_n481
*757 a1_2_a2_mult_mult_17_n480
*758 a1_2_a2_mult_mult_17_n479
*759 a1_2_a2_mult_mult_17_n478
*760 a1_2_a2_mult_mult_17_n477
*761 a1_2_a2_mult_mult_17_n476
*762 a1_2_a2_mult_mult_17_n475
*763 a1_2_a2_mult_mult_17_n474
*764 a1_2_a2_mult_mult_17_n473
*765 a1_2_a2_mult_mult_17_n472
*766 a1_2_a2_mult_mult_17_n471
*767 a1_2_a2_mult_mult_17_n470
*768 a1_2_a2_mult_mult_17_n469
*769 a1_2_a2_mult_mult_17_n468
*770 a1_2_a2_mult_mult_17_n467
*771 a1_2_a2_mult_mult_17_n466
*772 a1_2_a2_mult_mult_17_n465
*773 a1_2_a2_mult_mult_17_n464
*774 a1_2_a2_mult_mult_17_n463
*775 a1_2_a2_mult_mult_17_n462
*776 a1_2_a2_mult_mult_17_n461
*777 a1_2_a2_mult_mult_17_n460
*778 a1_2_a2_mult_mult_17_n459
*779 a1_2_a2_mult_mult_17_n458
*780 a1_2_a2_mult_mult_17_n457
*781 a1_2_a2_mult_mult_17_n456
*782 a1_2_a2_mult_mult_17_n455
*783 a1_2_a2_mult_mult_17_n454
*784 a1_2_a2_mult_mult_17_n453
*785 a1_2_a2_mult_mult_17_n452
*786 a1_2_a2_mult_mult_17_n451
*787 a1_2_a2_mult_mult_17_n450
*788 a1_2_a2_mult_mult_17_n449
*789 a1_2_a2_mult_mult_17_n448
*790 a1_2_a2_mult_mult_17_n447
*791 a1_2_a2_mult_mult_17_n446
*792 a1_2_a2_mult_mult_17_n445
*793 a1_2_a2_mult_mult_17_n444
*794 a1_2_a2_mult_mult_17_n443
*795 a1_2_a2_mult_mult_17_n442
*796 a1_2_a2_mult_mult_17_n441
*797 a1_2_a2_mult_mult_17_n440
*798 a1_2_a2_mult_mult_17_n439
*799 a1_2_a2_mult_mult_17_n438
*800 a1_2_a2_mult_mult_17_n437
*801 a1_2_a2_mult_mult_17_n436
*802 a1_2_a2_mult_mult_17_n435
*803 a1_2_a2_mult_mult_17_n434
*804 a1_2_a2_mult_mult_17_n433
*805 a1_2_a2_mult_mult_17_n432
*806 a1_2_a2_mult_mult_17_n431
*807 a1_2_a2_mult_mult_17_n430
*808 a1_2_a2_mult_mult_17_n429
*809 a1_2_a2_mult_mult_17_n428
*810 a1_2_a2_mult_mult_17_n427
*811 a1_2_a2_mult_mult_17_n426
*812 a1_2_a2_mult_mult_17_n425
*813 a1_2_a2_mult_mult_17_n424
*814 a1_2_a2_mult_mult_17_n423
*815 a1_2_a2_mult_mult_17_n422
*816 a1_2_a2_mult_mult_17_n421
*817 a1_2_a2_mult_mult_17_n420
*818 a1_2_a2_mult_mult_17_n419
*819 a1_2_a2_mult_mult_17_n418
*820 a1_2_a2_mult_mult_17_n417
*821 a1_2_a2_mult_mult_17_n416
*822 a1_2_a2_mult_mult_17_n414
*823 a1_2_a2_mult_mult_17_n413
*824 a1_2_a2_mult_mult_17_n412
*825 a1_2_a2_mult_mult_17_n411
*826 a1_2_a2_mult_mult_17_n410
*827 a1_2_a2_mult_mult_17_n409
*828 a1_2_a2_mult_mult_17_n408
*829 a1_2_a2_mult_mult_17_n407
*830 a1_2_a2_mult_mult_17_n406
*831 a1_2_a2_mult_mult_17_n405
*832 a1_2_a2_mult_mult_17_n404
*833 a1_2_a2_mult_mult_17_n403
*834 a1_2_a2_mult_mult_17_n402
*835 a1_2_a2_mult_mult_17_n401
*836 a1_2_a2_mult_mult_17_n400
*837 a1_2_a2_mult_mult_17_n399
*838 a1_2_a2_mult_mult_17_n398
*839 a1_2_a2_mult_mult_17_n397
*840 a1_2_a2_mult_mult_17_n396
*841 a1_2_a2_mult_mult_17_n395
*842 a1_2_a2_mult_mult_17_n394
*843 a1_2_a2_mult_mult_17_n393
*844 a1_2_a2_mult_mult_17_n392
*845 a1_2_a2_mult_mult_17_n391
*846 a1_2_a2_mult_mult_17_n384
*847 a1_2_a2_mult_mult_17_n383
*848 a1_2_a2_mult_mult_17_n382
*849 a1_2_a2_mult_mult_17_n208
*850 a1_2_a2_mult_mult_17_n207
*851 a1_2_a2_mult_mult_17_n206
*852 a1_2_a2_mult_mult_17_n205
*853 a1_2_a2_mult_mult_17_n204
*854 a1_2_a2_mult_mult_17_n203
*855 a1_2_a2_mult_mult_17_n202
*856 a1_2_a2_mult_mult_17_n201
*857 a1_2_a2_mult_mult_17_n198
*858 a1_2_a2_mult_mult_17_n197
*859 a1_2_a2_mult_mult_17_n196
*860 a1_2_a2_mult_mult_17_n195
*861 a1_2_a2_mult_mult_17_n194
*862 a1_2_a2_mult_mult_17_n193
*863 a1_2_a2_mult_mult_17_n192
*864 a1_2_a2_mult_mult_17_n191
*865 a1_2_a2_mult_mult_17_n190
*866 a1_2_a2_mult_mult_17_n188
*867 a1_2_a2_mult_mult_17_n187
*868 a1_2_a2_mult_mult_17_n186
*869 a1_2_a2_mult_mult_17_n185
*870 a1_2_a2_mult_mult_17_n184
*871 a1_2_a2_mult_mult_17_n183
*872 a1_2_a2_mult_mult_17_n182
*873 a1_2_a2_mult_mult_17_n181
*874 a1_2_a2_mult_mult_17_n180
*875 a1_2_a2_mult_mult_17_n179
*876 a1_2_a2_mult_mult_17_n177
*877 a1_2_a2_mult_mult_17_n176
*878 a1_2_a2_mult_mult_17_n175
*879 a1_2_a2_mult_mult_17_n174
*880 a1_2_a2_mult_mult_17_n173
*881 a1_2_a2_mult_mult_17_n172
*882 a1_2_a2_mult_mult_17_n171
*883 a1_2_a2_mult_mult_17_n170
*884 a1_2_a2_mult_mult_17_n169
*885 a1_2_a2_mult_mult_17_n168
*886 a1_2_a2_mult_mult_17_n166
*887 a1_2_a2_mult_mult_17_n165
*888 a1_2_a2_mult_mult_17_n164
*889 a1_2_a2_mult_mult_17_n162
*890 a1_2_a2_mult_mult_17_n161
*891 a1_2_a2_mult_mult_17_n160
*892 a1_2_a2_mult_mult_17_n159
*893 a1_2_a2_mult_mult_17_n158
*894 a1_2_a2_mult_mult_17_n157
*895 a1_2_a2_mult_mult_17_n155
*896 a1_2_a2_mult_mult_17_n153
*897 a1_2_a2_mult_mult_17_n152
*898 a1_2_a2_mult_mult_17_n151
*899 a1_2_a2_mult_mult_17_n150
*900 a1_2_a2_mult_mult_17_n149
*901 a1_2_a2_mult_mult_17_n148
*902 a1_2_a2_mult_mult_17_n147
*903 a1_2_a2_mult_mult_17_n146
*904 a1_2_a2_mult_mult_17_n142
*905 a1_2_a2_mult_mult_17_n141
*906 a1_2_a2_mult_mult_17_n140
*907 a1_2_a2_mult_mult_17_n139
*908 a1_2_a2_mult_mult_17_n121
*909 a1_2_a2_mult_mult_17_n120
*910 a1_2_a2_mult_mult_17_n119
*911 a1_2_a2_mult_mult_17_n118
*912 a1_2_a2_mult_mult_17_n117
*913 a1_2_a2_mult_mult_17_n116
*914 a1_2_a2_mult_mult_17_n115
*915 a1_2_a2_mult_mult_17_n114
*916 a1_2_a2_mult_mult_17_n113
*917 a1_2_a2_mult_mult_17_n112
*918 a1_2_a2_mult_mult_17_n111
*919 a1_2_a2_mult_mult_17_n110
*920 a1_2_a2_mult_mult_17_n109
*921 a1_2_a2_mult_mult_17_n108
*922 a1_2_a2_mult_mult_17_n107
*923 a1_2_a2_mult_mult_17_n106
*924 a1_2_a2_mult_mult_17_n105
*925 a1_2_a2_mult_mult_17_n104
*926 a1_2_a2_mult_mult_17_n103
*927 a1_2_a2_mult_mult_17_n102
*928 a1_2_a2_mult_mult_17_n101
*929 a1_2_a2_mult_mult_17_n100
*930 a1_2_a2_mult_mult_17_n99
*931 a1_2_a2_mult_mult_17_n98
*932 a1_2_a2_mult_mult_17_n97
*933 a1_2_a2_mult_mult_17_n96
*934 a1_2_a2_mult_mult_17_n95
*935 a1_2_a2_mult_mult_17_n94
*936 a1_2_a2_mult_mult_17_n93
*937 a1_2_a2_mult_mult_17_n92
*938 a1_2_a2_mult_mult_17_n91
*939 a1_2_a2_mult_mult_17_n90
*940 a1_2_a2_mult_mult_17_n89
*941 a1_2_a2_mult_mult_17_n88
*942 a1_2_a2_mult_mult_17_n87
*943 a1_2_a2_mult_mult_17_n86
*944 a1_2_a2_mult_mult_17_n85
*945 a1_2_a2_mult_mult_17_n84
*946 a1_2_a2_mult_mult_17_n83
*947 a1_2_a2_mult_mult_17_n82
*948 a1_2_a2_mult_mult_17_n81
*949 a1_2_a2_mult_mult_17_n80
*950 a1_2_a2_mult_mult_17_n79
*951 a1_2_a2_mult_mult_17_n78
*952 a1_2_a2_mult_mult_17_n77
*953 a1_2_a2_mult_mult_17_n76
*954 a1_2_a2_mult_mult_17_n75
*955 a1_2_a2_mult_mult_17_n74
*956 a1_2_a2_mult_mult_17_n73
*957 a1_2_a2_mult_mult_17_n72
*958 a1_2_a2_mult_mult_17_n70
*959 a1_2_a2_mult_mult_17_n69
*960 a1_2_a2_mult_mult_17_n68
*961 a1_2_a2_mult_mult_17_n67
*962 a1_2_a2_mult_mult_17_n66
*963 a1_2_a2_mult_mult_17_n65
*964 a1_2_a2_mult_mult_17_n64
*965 a1_2_a2_mult_mult_17_n63
*966 a1_2_a2_mult_mult_17_n62
*967 a1_2_a2_mult_mult_17_n61
*968 a1_2_a2_mult_mult_17_n60
*969 a1_2_a2_mult_mult_17_n59
*970 a1_2_a2_mult_mult_17_n58
*971 a1_2_a2_mult_mult_17_n57
*972 a1_2_a2_mult_mult_17_n56
*973 a1_2_a2_mult_mult_17_n55
*974 a1_2_a2_mult_mult_17_n54
*975 a1_2_a2_mult_mult_17_n52
*976 a1_2_a2_mult_mult_17_n51
*977 a1_2_a2_mult_mult_17_n50
*978 a1_2_a2_mult_mult_17_n49
*979 a1_2_a2_mult_mult_17_n48
*980 a1_2_a2_mult_mult_17_n47
*981 a1_2_a2_mult_mult_17_n46
*982 a1_2_a2_mult_mult_17_n45
*983 a1_2_a2_mult_mult_17_n44
*984 a1_2_a2_mult_mult_17_n43
*985 a1_2_a2_mult_mult_17_n42
*986 a1_2_a2_mult_mult_17_n41
*987 a1_2_a2_mult_mult_17_n40
*988 a1_2_a2_mult_mult_17_n38
*989 a1_2_a2_mult_mult_17_n37
*990 a1_2_a2_mult_mult_17_n36
*991 a1_2_a2_mult_mult_17_n35
*992 a1_2_a2_mult_mult_17_n34
*993 a1_2_a2_mult_mult_17_n33
*994 a1_2_a2_mult_mult_17_n32
*995 a1_2_a2_mult_mult_17_n31
*996 a1_2_a2_mult_mult_17_n30
*997 a1_2_a2_mult_mult_17_n28
*998 a1_2_a2_mult_mult_17_n27
*999 a1_2_a2_mult_mult_17_n26
*1000 a1_2_a2_mult_mult_17_n25
*1001 a1_2_a2_mult_mult_17_n24
*1002 a1_2_a2_mult_mult_17_n11
*1003 a1_2_a2_mult_mult_17_n10
*1004 a1_2_a2_mult_mult_17_n9
*1005 a1_2_a2_mult_mult_17_n8
*1006 a1_2_a2_mult_mult_17_n7
*1007 a1_2_a2_mult_mult_17_n6
*1008 a1_2_a2_mult_mult_17_n5
*1009 a1_2_a2_mult_mult_17_n4
*1010 a1_2_a2_mult_reg_n56
*1011 a1_2_a2_mult_reg_n55
*1012 a1_2_a2_mult_reg_n54
*1013 a1_2_a2_mult_reg_n53
*1014 a1_2_a2_mult_reg_n52
*1015 a1_2_a2_mult_reg_n51
*1016 a1_2_a2_mult_reg_n50
*1017 a1_2_a2_mult_reg_n49
*1018 a1_2_a2_mult_reg_n48
*1019 a1_2_a2_mult_reg_n47
*1020 a1_2_a2_mult_reg_n46
*1021 a1_2_a2_mult_reg_n45
*1022 a1_2_a2_mult_reg_n44
*1023 a1_2_a2_mult_reg_n43
*1024 a1_2_a2_mult_reg_n42
*1025 a1_2_a2_mult_reg_n41
*1026 a1_2_a2_mult_reg_n40
*1027 a1_2_a2_mult_reg_n39
*1028 a1_2_a2_mult_reg_n38
*1029 a1_2_a2_mult_reg_n37
*1030 a1_2_a2_mult_reg_n36
*1031 a1_2_a2_mult_reg_n35
*1032 a1_2_a2_mult_reg_n34
*1033 a1_2_a2_mult_reg_n33
*1034 a1_2_a2_mult_reg_n32
*1035 a1_2_a2_mult_reg_n31
*1036 a1_2_a2_mult_reg_n30
*1037 a1a2_mult_reg_n56
*1038 a1a2_mult_reg_n55
*1039 a1a2_mult_reg_n54
*1040 a1a2_mult_reg_n53
*1041 a1a2_mult_reg_n52
*1042 a1a2_mult_reg_n51
*1043 a1a2_mult_reg_n50
*1044 a1a2_mult_reg_n49
*1045 a1a2_mult_reg_n48
*1046 a1a2_mult_reg_n47
*1047 a1a2_mult_reg_n46
*1048 a1a2_mult_reg_n45
*1049 a1a2_mult_reg_n44
*1050 a1a2_mult_reg_n43
*1051 a1a2_mult_reg_n42
*1052 a1a2_mult_reg_n41
*1053 a1a2_mult_reg_n40
*1054 a1a2_mult_reg_n39
*1055 a1a2_mult_reg_n38
*1056 a1a2_mult_reg_n37
*1057 a1a2_mult_reg_n36
*1058 a1a2_mult_reg_n35
*1059 a1a2_mult_reg_n34
*1060 a1a2_mult_reg_n33
*1061 a1a2_mult_reg_n32
*1062 a1a2_mult_reg_n31
*1063 a1a2_mult_reg_n30
*1064 a1a2_mult_fract_product_0_
*1065 a1a2_mult_mult_17_n515
*1066 a1a2_mult_mult_17_n514
*1067 a1a2_mult_mult_17_n513
*1068 a1a2_mult_mult_17_n512
*1069 a1a2_mult_mult_17_n511
*1070 a1a2_mult_mult_17_n510
*1071 a1a2_mult_mult_17_n509
*1072 a1a2_mult_mult_17_n508
*1073 a1a2_mult_mult_17_n507
*1074 a1a2_mult_mult_17_n506
*1075 a1a2_mult_mult_17_n505
*1076 a1a2_mult_mult_17_n504
*1077 a1a2_mult_mult_17_n503
*1078 a1a2_mult_mult_17_n502
*1079 a1a2_mult_mult_17_n501
*1080 a1a2_mult_mult_17_n500
*1081 a1a2_mult_mult_17_n499
*1082 a1a2_mult_mult_17_n498
*1083 a1a2_mult_mult_17_n497
*1084 a1a2_mult_mult_17_n496
*1085 a1a2_mult_mult_17_n495
*1086 a1a2_mult_mult_17_n494
*1087 a1a2_mult_mult_17_n493
*1088 a1a2_mult_mult_17_n492
*1089 a1a2_mult_mult_17_n491
*1090 a1a2_mult_mult_17_n490
*1091 a1a2_mult_mult_17_n489
*1092 a1a2_mult_mult_17_n488
*1093 a1a2_mult_mult_17_n487
*1094 a1a2_mult_mult_17_n486
*1095 a1a2_mult_mult_17_n485
*1096 a1a2_mult_mult_17_n484
*1097 a1a2_mult_mult_17_n483
*1098 a1a2_mult_mult_17_n482
*1099 a1a2_mult_mult_17_n481
*1100 a1a2_mult_mult_17_n480
*1101 a1a2_mult_mult_17_n479
*1102 a1a2_mult_mult_17_n478
*1103 a1a2_mult_mult_17_n477
*1104 a1a2_mult_mult_17_n476
*1105 a1a2_mult_mult_17_n475
*1106 a1a2_mult_mult_17_n474
*1107 a1a2_mult_mult_17_n473
*1108 a1a2_mult_mult_17_n472
*1109 a1a2_mult_mult_17_n471
*1110 a1a2_mult_mult_17_n470
*1111 a1a2_mult_mult_17_n469
*1112 a1a2_mult_mult_17_n468
*1113 a1a2_mult_mult_17_n467
*1114 a1a2_mult_mult_17_n466
*1115 a1a2_mult_mult_17_n465
*1116 a1a2_mult_mult_17_n464
*1117 a1a2_mult_mult_17_n463
*1118 a1a2_mult_mult_17_n462
*1119 a1a2_mult_mult_17_n461
*1120 a1a2_mult_mult_17_n460
*1121 a1a2_mult_mult_17_n459
*1122 a1a2_mult_mult_17_n458
*1123 a1a2_mult_mult_17_n457
*1124 a1a2_mult_mult_17_n456
*1125 a1a2_mult_mult_17_n455
*1126 a1a2_mult_mult_17_n454
*1127 a1a2_mult_mult_17_n453
*1128 a1a2_mult_mult_17_n452
*1129 a1a2_mult_mult_17_n451
*1130 a1a2_mult_mult_17_n450
*1131 a1a2_mult_mult_17_n449
*1132 a1a2_mult_mult_17_n448
*1133 a1a2_mult_mult_17_n447
*1134 a1a2_mult_mult_17_n446
*1135 a1a2_mult_mult_17_n445
*1136 a1a2_mult_mult_17_n444
*1137 a1a2_mult_mult_17_n443
*1138 a1a2_mult_mult_17_n442
*1139 a1a2_mult_mult_17_n441
*1140 a1a2_mult_mult_17_n440
*1141 a1a2_mult_mult_17_n439
*1142 a1a2_mult_mult_17_n438
*1143 a1a2_mult_mult_17_n437
*1144 a1a2_mult_mult_17_n436
*1145 a1a2_mult_mult_17_n435
*1146 a1a2_mult_mult_17_n434
*1147 a1a2_mult_mult_17_n433
*1148 a1a2_mult_mult_17_n432
*1149 a1a2_mult_mult_17_n431
*1150 a1a2_mult_mult_17_n430
*1151 a1a2_mult_mult_17_n429
*1152 a1a2_mult_mult_17_n428
*1153 a1a2_mult_mult_17_n427
*1154 a1a2_mult_mult_17_n426
*1155 a1a2_mult_mult_17_n425
*1156 a1a2_mult_mult_17_n424
*1157 a1a2_mult_mult_17_n423
*1158 a1a2_mult_mult_17_n422
*1159 a1a2_mult_mult_17_n421
*1160 a1a2_mult_mult_17_n420
*1161 a1a2_mult_mult_17_n419
*1162 a1a2_mult_mult_17_n418
*1163 a1a2_mult_mult_17_n417
*1164 a1a2_mult_mult_17_n416
*1165 a1a2_mult_mult_17_n415
*1166 a1a2_mult_mult_17_n414
*1167 a1a2_mult_mult_17_n412
*1168 a1a2_mult_mult_17_n411
*1169 a1a2_mult_mult_17_n410
*1170 a1a2_mult_mult_17_n409
*1171 a1a2_mult_mult_17_n408
*1172 a1a2_mult_mult_17_n407
*1173 a1a2_mult_mult_17_n406
*1174 a1a2_mult_mult_17_n405
*1175 a1a2_mult_mult_17_n404
*1176 a1a2_mult_mult_17_n403
*1177 a1a2_mult_mult_17_n402
*1178 a1a2_mult_mult_17_n401
*1179 a1a2_mult_mult_17_n400
*1180 a1a2_mult_mult_17_n399
*1181 a1a2_mult_mult_17_n398
*1182 a1a2_mult_mult_17_n397
*1183 a1a2_mult_mult_17_n396
*1184 a1a2_mult_mult_17_n395
*1185 a1a2_mult_mult_17_n394
*1186 a1a2_mult_mult_17_n393
*1187 a1a2_mult_mult_17_n392
*1188 a1a2_mult_mult_17_n391
*1189 a1a2_mult_mult_17_n390
*1190 a1a2_mult_mult_17_n389
*1191 a1a2_mult_mult_17_n388
*1192 a1a2_mult_mult_17_n387
*1193 a1a2_mult_mult_17_n386
*1194 a1a2_mult_mult_17_n385
*1195 a1a2_mult_mult_17_n384
*1196 a1a2_mult_mult_17_n383
*1197 a1a2_mult_mult_17_n382
*1198 a1a2_mult_mult_17_n208
*1199 a1a2_mult_mult_17_n207
*1200 a1a2_mult_mult_17_n206
*1201 a1a2_mult_mult_17_n205
*1202 a1a2_mult_mult_17_n204
*1203 a1a2_mult_mult_17_n203
*1204 a1a2_mult_mult_17_n202
*1205 a1a2_mult_mult_17_n201
*1206 a1a2_mult_mult_17_n198
*1207 a1a2_mult_mult_17_n197
*1208 a1a2_mult_mult_17_n196