*SPEF "IEEE 1481-1998"
*DESIGN "IIR_FILTER"
*DATE "Fri Oct 30 19:34:16 2020"
*VENDOR "Cadence Design Systems, Inc."
*PROGRAM "Innovus"
*VERSION "17.11-s080_1"
*DESIGN_FLOW "COUPLING C" "PIN_CAP NONE" "NAME_SCOPE LOCAL"
*DIVIDER /
*DELIMITER :
*BUS_DELIMITER []
*T_UNIT 1 NS
*C_UNIT 1 PF
*R_UNIT 1 OHM
*L_UNIT 1 HENRY

// MMMC spef file for corner 'my_rc'

*NAME_MAP

*1 din[8]
*2 din[7]
*3 din[6]
*4 din[5]
*5 din[4]
*6 din[3]
*7 din[2]
*8 din[1]
*9 din[0]
*10 b0[8]
*11 b0[7]
*12 b0[6]
*13 b0[5]
*14 b0[4]
*15 b0[3]
*16 b0[2]
*17 b0[1]
*18 b0[0]
*19 b1[8]
*20 b1[7]
*21 b1[6]
*22 b1[5]
*23 b1[4]
*24 b1[3]
*25 b1[2]
*26 b1[1]
*27 b1[0]
*28 b2[8]
*29 b2[7]
*30 b2[6]
*31 b2[5]
*32 b2[4]
*33 b2[3]
*34 b2[2]
*35 b2[1]
*36 b2[0]
*37 a1[8]
*38 a1[7]
*39 a1[6]
*40 a1[5]
*41 a1[4]
*42 a1[3]
*43 a1[2]
*44 a1[1]
*45 a1[0]
*46 a2[8]
*47 a2[7]
*48 a2[6]
*49 a2[5]
*50 a2[4]
*51 a2[3]
*52 a2[2]
*53 a2[1]
*54 a2[0]
*55 clk
*56 vin
*57 rst_n
*58 dout[8]
*59 dout[7]
*60 dout[6]
*61 dout[5]
*62 dout[4]
*63 dout[3]
*64 dout[2]
*65 dout[1]
*66 dout[0]
*67 vout
*68 FE_OFN23_ff_mult1_mult_16_n315
*69 FE_OFN22_fb_mult0_mult_16_n315
*70 FE_OFN21_ff_mult0_mult_16_n312
*71 FE_OFN20_ff_mult1_mult_16_n312
*72 FE_OFN19_fb_mult1_mult_16_n311
*73 FE_OFN18_ff_mult0_mult_16_n315
*74 FE_OFN17_fb_mult1_mult_16_n308
*75 FE_OFN16_fb_mult0_mult_16_n312
*76 FE_OFN15_rst_n
*77 FE_OFN14_rst_n
*78 FE_OFN13_vin
*79 FE_OFN12_vin
*80 FE_OFN11_sw1_7
*81 FE_OFN10_y_mult_mult_16_n310
*82 FE_OFN9_y_mult_mult_16_n307
*83 FE_OFN8_sw1_5
*84 FE_OFN7_sw1_8
*85 FE_OFN6_sw1_1
*86 FE_OFN5_sw1_3
*87 FE_OFN4_sw0_8
*88 FE_OFN3_sw0_1
*89 FE_OFN2_sw0_5
*90 FE_OFN1_sw0_7
*91 FE_OFN0_sw0_3
*92 FE_DBTN7_sw0_0
*93 FE_DBTN6_sw0_3
*94 FE_DBTN5_sw0_5
*95 FE_DBTN4_sw0_7
*96 FE_DBTN3_sw1_0
*97 FE_DBTN2_sw1_3
*98 FE_DBTN1_sw1_5
*99 FE_DBTN0_sw1_7
*100 vout_tmp
*101 n14
*102 n15
*103 n16
*104 n17
*105 n18
*106 n20
*107 n21
*108 n22
*109 n23
*110 n24
*111 din_reg_n27
*112 din_reg_n26
*113 din_reg_n25
*114 din_reg_n24
*115 din_reg_n23
*116 din_reg_n22
*117 din_reg_n21
*118 din_reg_n20
*119 din_reg_n19
*120 din_reg_n18
*121 din_reg_n17
*122 din_reg_n16
*123 din_reg_n15
*124 din_reg_n14
*125 din_reg_n13
*126 din_reg_n12
*127 din_reg_n11
*128 din_reg_n10
*129 din_reg_n9
*130 din_reg_n8
*131 din_reg_n7
*132 din_reg_n6
*133 din_reg_n5
*134 din_reg_n4
*135 din_reg_n3
*136 din_reg_n2
*137 din_reg_n1
*138 a1_reg_n56
*139 a1_reg_n55
*140 a1_reg_n54
*141 a1_reg_n53
*142 a1_reg_n52
*143 a1_reg_n51
*144 a1_reg_n50
*145 a1_reg_n49
*146 a1_reg_n48
*147 a1_reg_n47
*148 a1_reg_n46
*149 a1_reg_n45
*150 a1_reg_n44
*151 a1_reg_n43
*152 a1_reg_n42
*153 a1_reg_n41
*154 a1_reg_n40
*155 a1_reg_n39
*156 a1_reg_n38
*157 a1_reg_n37
*158 a1_reg_n36
*159 a1_reg_n35
*160 a1_reg_n34
*161 a1_reg_n33
*162 a1_reg_n32
*163 a1_reg_n31
*164 a1_reg_n30
*165 a2_reg_n56
*166 a2_reg_n55
*167 a2_reg_n54
*168 a2_reg_n53
*169 a2_reg_n52
*170 a2_reg_n51
*171 a2_reg_n50
*172 a2_reg_n49
*173 a2_reg_n48
*174 a2_reg_n47
*175 a2_reg_n46
*176 a2_reg_n45
*177 a2_reg_n44
*178 a2_reg_n43
*179 a2_reg_n42
*180 a2_reg_n41
*181 a2_reg_n40
*182 a2_reg_n39
*183 a2_reg_n38
*184 a2_reg_n37
*185 a2_reg_n36
*186 a2_reg_n35
*187 a2_reg_n34
*188 a2_reg_n33
*189 a2_reg_n32
*190 a2_reg_n31
*191 a2_reg_n30
*192 b0_reg_n56
*193 b0_reg_n55
*194 b0_reg_n54
*195 b0_reg_n53
*196 b0_reg_n52
*197 b0_reg_n51
*198 b0_reg_n50
*199 b0_reg_n49
*200 b0_reg_n48
*201 b0_reg_n47
*202 b0_reg_n46
*203 b0_reg_n45
*204 b0_reg_n44
*205 b0_reg_n43
*206 b0_reg_n42
*207 b0_reg_n41
*208 b0_reg_n40
*209 b0_reg_n39
*210 b0_reg_n38
*211 b0_reg_n37
*212 b0_reg_n36
*213 b0_reg_n35
*214 b0_reg_n34
*215 b0_reg_n33
*216 b0_reg_n32
*217 b0_reg_n31
*218 b0_reg_n30
*219 b1_reg_n56
*220 b1_reg_n55
*221 b1_reg_n54
*222 b1_reg_n53
*223 b1_reg_n52
*224 b1_reg_n51
*225 b1_reg_n50
*226 b1_reg_n49
*227 b1_reg_n48
*228 b1_reg_n47
*229 b1_reg_n46
*230 b1_reg_n45
*231 b1_reg_n44
*232 b1_reg_n43
*233 b1_reg_n42
*234 b1_reg_n41
*235 b1_reg_n40
*236 b1_reg_n39
*237 b1_reg_n38
*238 b1_reg_n37
*239 b1_reg_n36
*240 b1_reg_n35
*241 b1_reg_n34
*242 b1_reg_n33
*243 b1_reg_n32
*244 b1_reg_n31
*245 b1_reg_n30
*246 b2_reg_n56
*247 b2_reg_n55
*248 b2_reg_n54
*249 b2_reg_n53
*250 b2_reg_n52
*251 b2_reg_n51
*252 b2_reg_n50
*253 b2_reg_n49
*254 b2_reg_n48
*255 b2_reg_n47
*256 b2_reg_n46
*257 b2_reg_n45
*258 b2_reg_n44
*259 b2_reg_n43
*260 b2_reg_n42
*261 b2_reg_n41
*262 b2_reg_n40
*263 b2_reg_n39
*264 b2_reg_n38
*265 b2_reg_n37
*266 b2_reg_n36
*267 b2_reg_n35
*268 b2_reg_n34
*269 b2_reg_n33
*270 b2_reg_n32
*271 b2_reg_n31
*272 b2_reg_n30
*273 fb_mult0_fract_product_0_
*274 fb_mult0_mult_16_n382
*275 fb_mult0_mult_16_n381
*276 fb_mult0_mult_16_n380
*277 fb_mult0_mult_16_n379
*278 fb_mult0_mult_16_n378
*279 fb_mult0_mult_16_n377
*280 fb_mult0_mult_16_n375
*281 fb_mult0_mult_16_n374
*282 fb_mult0_mult_16_n373
*283 fb_mult0_mult_16_n372
*284 fb_mult0_mult_16_n371
*285 fb_mult0_mult_16_n370
*286 fb_mult0_mult_16_n369
*287 fb_mult0_mult_16_n368
*288 fb_mult0_mult_16_n367
*289 fb_mult0_mult_16_n366
*290 fb_mult0_mult_16_n365
*291 fb_mult0_mult_16_n364
*292 fb_mult0_mult_16_n363
*293 fb_mult0_mult_16_n362
*294 fb_mult0_mult_16_n361
*295 fb_mult0_mult_16_n359
*296 fb_mult0_mult_16_n358
*297 fb_mult0_mult_16_n357
*298 fb_mult0_mult_16_n356
*299 fb_mult0_mult_16_n355
*300 fb_mult0_mult_16_n354
*301 fb_mult0_mult_16_n353
*302 fb_mult0_mult_16_n352
*303 fb_mult0_mult_16_n351
*304 fb_mult0_mult_16_n350
*305 fb_mult0_mult_16_n349
*306 fb_mult0_mult_16_n348
*307 fb_mult0_mult_16_n347
*308 fb_mult0_mult_16_n346
*309 fb_mult0_mult_16_n345
*310 fb_mult0_mult_16_n344
*311 fb_mult0_mult_16_n343
*312 fb_mult0_mult_16_n342
*313 fb_mult0_mult_16_n341
*314 fb_mult0_mult_16_n340
*315 fb_mult0_mult_16_n339
*316 fb_mult0_mult_16_n338
*317 fb_mult0_mult_16_n337
*318 fb_mult0_mult_16_n336
*319 fb_mult0_mult_16_n335
*320 fb_mult0_mult_16_n334
*321 fb_mult0_mult_16_n333
*322 fb_mult0_mult_16_n332
*323 fb_mult0_mult_16_n331
*324 fb_mult0_mult_16_n330
*325 fb_mult0_mult_16_n329
*326 fb_mult0_mult_16_n328
*327 fb_mult0_mult_16_n327
*328 fb_mult0_mult_16_n326
*329 fb_mult0_mult_16_n325
*330 fb_mult0_mult_16_n324
*331 fb_mult0_mult_16_n323
*332 fb_mult0_mult_16_n322
*333 fb_mult0_mult_16_n321
*334 fb_mult0_mult_16_n320
*335 fb_mult0_mult_16_n319
*336 fb_mult0_mult_16_n318
*337 fb_mult0_mult_16_n317
*338 fb_mult0_mult_16_n316
*339 fb_mult0_mult_16_n314
*340 fb_mult0_mult_16_n313
*341 fb_mult0_mult_16_n311
*342 fb_mult0_mult_16_n310
*343 fb_mult0_mult_16_n309
*344 fb_mult0_mult_16_n308
*345 fb_mult0_mult_16_n307
*346 fb_mult0_mult_16_n305
*347 fb_mult0_mult_16_n301
*348 fb_mult0_mult_16_n300
*349 fb_mult0_mult_16_n299
*350 fb_mult0_mult_16_n298
*351 fb_mult0_mult_16_n297
*352 fb_mult0_mult_16_n296
*353 fb_mult0_mult_16_n295
*354 fb_mult0_mult_16_n294
*355 fb_mult0_mult_16_n293
*356 fb_mult0_mult_16_n292
*357 fb_mult0_mult_16_n291
*358 fb_mult0_mult_16_n290
*359 fb_mult0_mult_16_n289
*360 fb_mult0_mult_16_n288
*361 fb_mult0_mult_16_n287
*362 fb_mult0_mult_16_n286
*363 fb_mult0_mult_16_n285
*364 fb_mult0_mult_16_n284
*365 fb_mult0_mult_16_n283
*366 fb_mult0_mult_16_n282
*367 fb_mult0_mult_16_n141
*368 fb_mult0_mult_16_n140
*369 fb_mult0_mult_16_n139
*370 fb_mult0_mult_16_n138
*371 fb_mult0_mult_16_n137
*372 fb_mult0_mult_16_n136
*373 fb_mult0_mult_16_n133
*374 fb_mult0_mult_16_n132
*375 fb_mult0_mult_16_n131
*376 fb_mult0_mult_16_n130
*377 fb_mult0_mult_16_n129
*378 fb_mult0_mult_16_n128
*379 fb_mult0_mult_16_n127
*380 fb_mult0_mult_16_n125
*381 fb_mult0_mult_16_n124
*382 fb_mult0_mult_16_n123
*383 fb_mult0_mult_16_n122
*384 fb_mult0_mult_16_n121
*385 fb_mult0_mult_16_n120
*386 fb_mult0_mult_16_n119
*387 fb_mult0_mult_16_n118
*388 fb_mult0_mult_16_n116
*389 fb_mult0_mult_16_n115
*390 fb_mult0_mult_16_n114
*391 fb_mult0_mult_16_n112
*392 fb_mult0_mult_16_n111
*393 fb_mult0_mult_16_n110
*394 fb_mult0_mult_16_n109
*395 fb_mult0_mult_16_n107
*396 fb_mult0_mult_16_n105
*397 fb_mult0_mult_16_n104
*398 fb_mult0_mult_16_n103
*399 fb_mult0_mult_16_n102
*400 fb_mult0_mult_16_n101
*401 fb_mult0_mult_16_n100
*402 fb_mult0_mult_16_n96
*403 fb_mult0_mult_16_n95
*404 fb_mult0_mult_16_n94
*405 fb_mult0_mult_16_n79
*406 fb_mult0_mult_16_n78
*407 fb_mult0_mult_16_n77
*408 fb_mult0_mult_16_n76
*409 fb_mult0_mult_16_n75
*410 fb_mult0_mult_16_n74
*411 fb_mult0_mult_16_n73
*412 fb_mult0_mult_16_n72
*413 fb_mult0_mult_16_n71
*414 fb_mult0_mult_16_n70
*415 fb_mult0_mult_16_n69
*416 fb_mult0_mult_16_n68
*417 fb_mult0_mult_16_n67
*418 fb_mult0_mult_16_n66
*419 fb_mult0_mult_16_n65
*420 fb_mult0_mult_16_n64
*421 fb_mult0_mult_16_n63
*422 fb_mult0_mult_16_n62
*423 fb_mult0_mult_16_n61
*424 fb_mult0_mult_16_n60
*425 fb_mult0_mult_16_n59
*426 fb_mult0_mult_16_n58
*427 fb_mult0_mult_16_n57
*428 fb_mult0_mult_16_n56
*429 fb_mult0_mult_16_n55
*430 fb_mult0_mult_16_n54
*431 fb_mult0_mult_16_n53
*432 fb_mult0_mult_16_n52
*433 fb_mult0_mult_16_n51
*434 fb_mult0_mult_16_n50
*435 fb_mult0_mult_16_n49
*436 fb_mult0_mult_16_n48
*437 fb_mult0_mult_16_n46
*438 fb_mult0_mult_16_n45
*439 fb_mult0_mult_16_n44
*440 fb_mult0_mult_16_n43
*441 fb_mult0_mult_16_n42
*442 fb_mult0_mult_16_n41
*443 fb_mult0_mult_16_n40
*444 fb_mult0_mult_16_n39
*445 fb_mult0_mult_16_n38
*446 fb_mult0_mult_16_n37
*447 fb_mult0_mult_16_n36
*448 fb_mult0_mult_16_n35
*449 fb_mult0_mult_16_n34
*450 fb_mult0_mult_16_n32
*451 fb_mult0_mult_16_n31
*452 fb_mult0_mult_16_n30
*453 fb_mult0_mult_16_n29
*454 fb_mult0_mult_16_n28
*455 fb_mult0_mult_16_n27
*456 fb_mult0_mult_16_n26
*457 fb_mult0_mult_16_n25
*458 fb_mult0_mult_16_n24
*459 fb_mult0_mult_16_n22
*460 fb_mult0_mult_16_n21
*461 fb_mult0_mult_16_n20
*462 fb_mult0_mult_16_n19
*463 fb_mult0_mult_16_n18
*464 fb_mult0_mult_16_n7
*465 fb_mult0_mult_16_n6
*466 fb_mult0_mult_16_n5
*467 fb_mult0_mult_16_n4
*468 fb_mult0_mult_16_n3
*469 fb_mult0_mult_16_n2
*470 fb_mult1_fract_product_0_
*471 fb_mult1_mult_16_n378
*472 fb_mult1_mult_16_n377
*473 fb_mult1_mult_16_n376
*474 fb_mult1_mult_16_n375
*475 fb_mult1_mult_16_n374
*476 fb_mult1_mult_16_n373
*477 fb_mult1_mult_16_n371
*478 fb_mult1_mult_16_n370
*479 fb_mult1_mult_16_n369
*480 fb_mult1_mult_16_n368
*481 fb_mult1_mult_16_n367
*482 fb_mult1_mult_16_n366
*483 fb_mult1_mult_16_n365
*484 fb_mult1_mult_16_n364
*485 fb_mult1_mult_16_n363
*486 fb_mult1_mult_16_n362
*487 fb_mult1_mult_16_n361
*488 fb_mult1_mult_16_n360
*489 fb_mult1_mult_16_n359
*490 fb_mult1_mult_16_n358
*491 fb_mult1_mult_16_n357
*492 fb_mult1_mult_16_n355
*493 fb_mult1_mult_16_n354
*494 fb_mult1_mult_16_n353
*495 fb_mult1_mult_16_n352
*496 fb_mult1_mult_16_n351
*497 fb_mult1_mult_16_n350
*498 fb_mult1_mult_16_n349
*499 fb_mult1_mult_16_n348
*500 fb_mult1_mult_16_n347
*501 fb_mult1_mult_16_n346
*502 fb_mult1_mult_16_n345
*503 fb_mult1_mult_16_n344
*504 fb_mult1_mult_16_n343
*505 fb_mult1_mult_16_n342
*506 fb_mult1_mult_16_n341
*507 fb_mult1_mult_16_n340
*508 fb_mult1_mult_16_n339
*509 fb_mult1_mult_16_n338
*510 fb_mult1_mult_16_n337
*511 fb_mult1_mult_16_n336
*512 fb_mult1_mult_16_n335
*513 fb_mult1_mult_16_n334
*514 fb_mult1_mult_16_n333
*515 fb_mult1_mult_16_n332
*516 fb_mult1_mult_16_n331
*517 fb_mult1_mult_16_n330
*518 fb_mult1_mult_16_n329
*519 fb_mult1_mult_16_n328
*520 fb_mult1_mult_16_n327
*521 fb_mult1_mult_16_n326
*522 fb_mult1_mult_16_n325
*523 fb_mult1_mult_16_n324
*524 fb_mult1_mult_16_n323
*525 fb_mult1_mult_16_n322
*526 fb_mult1_mult_16_n321
*527 fb_mult1_mult_16_n320
*528 fb_mult1_mult_16_n319
*529 fb_mult1_mult_16_n318
*530 fb_mult1_mult_16_n317
*531 fb_mult1_mult_16_n316
*532 fb_mult1_mult_16_n315
*533 fb_mult1_mult_16_n314
*534 fb_mult1_mult_16_n313
*535 fb_mult1_mult_16_n312
*536 fb_mult1_mult_16_n310
*537 fb_mult1_mult_16_n309
*538 fb_mult1_mult_16_n307
*539 fb_mult1_mult_16_n306
*540 fb_mult1_mult_16_n305
*541 fb_mult1_mult_16_n304
*542 fb_mult1_mult_16_n303
*543 fb_mult1_mult_16_n301
*544 fb_mult1_mult_16_n297
*545 fb_mult1_mult_16_n296
*546 fb_mult1_mult_16_n295
*547 fb_mult1_mult_16_n294
*548 fb_mult1_mult_16_n293
*549 fb_mult1_mult_16_n292
*550 fb_mult1_mult_16_n291
*551 fb_mult1_mult_16_n290
*552 fb_mult1_mult_16_n289
*553 fb_mult1_mult_16_n288
*554 fb_mult1_mult_16_n287
*555 fb_mult1_mult_16_n286
*556 fb_mult1_mult_16_n285
*557 fb_mult1_mult_16_n284
*558 fb_mult1_mult_16_n283
*559 fb_mult1_mult_16_n282
*560 fb_mult1_mult_16_n281
*561 fb_mult1_mult_16_n280
*562 fb_mult1_mult_16_n279
*563 fb_mult1_mult_16_n278
*564 fb_mult1_mult_16_n141
*565 fb_mult1_mult_16_n140
*566 fb_mult1_mult_16_n139
*567 fb_mult1_mult_16_n138
*568 fb_mult1_mult_16_n137
*569 fb_mult1_mult_16_n136
*570 fb_mult1_mult_16_n133
*571 fb_mult1_mult_16_n132
*572 fb_mult1_mult_16_n131
*573 fb_mult1_mult_16_n130
*574 fb_mult1_mult_16_n129
*575 fb_mult1_mult_16_n128
*576 fb_mult1_mult_16_n127
*577 fb_mult1_mult_16_n125
*578 fb_mult1_mult_16_n124
*579 fb_mult1_mult_16_n123
*580 fb_mult1_mult_16_n122
*581 fb_mult1_mult_16_n121
*582 fb_mult1_mult_16_n120
*583 fb_mult1_mult_16_n119
*584 fb_mult1_mult_16_n118
*585 fb_mult1_mult_16_n116
*586 fb_mult1_mult_16_n115
*587 fb_mult1_mult_16_n114
*588 fb_mult1_mult_16_n112
*589 fb_mult1_mult_16_n111
*590 fb_mult1_mult_16_n110
*591 fb_mult1_mult_16_n109
*592 fb_mult1_mult_16_n107
*593 fb_mult1_mult_16_n105
*594 fb_mult1_mult_16_n104
*595 fb_mult1_mult_16_n103
*596 fb_mult1_mult_16_n102
*597 fb_mult1_mult_16_n101
*598 fb_mult1_mult_16_n100
*599 fb_mult1_mult_16_n96
*600 fb_mult1_mult_16_n95
*601 fb_mult1_mult_16_n94
*602 fb_mult1_mult_16_n79
*603 fb_mult1_mult_16_n78
*604 fb_mult1_mult_16_n77
*605 fb_mult1_mult_16_n76
*606 fb_mult1_mult_16_n75
*607 fb_mult1_mult_16_n74
*608 fb_mult1_mult_16_n73
*609 fb_mult1_mult_16_n72
*610 fb_mult1_mult_16_n71
*611 fb_mult1_mult_16_n70
*612 fb_mult1_mult_16_n69
*613 fb_mult1_mult_16_n68
*614 fb_mult1_mult_16_n67
*615 fb_mult1_mult_16_n66
*616 fb_mult1_mult_16_n65
*617 fb_mult1_mult_16_n64
*618 fb_mult1_mult_16_n63
*619 fb_mult1_mult_16_n62
*620 fb_mult1_mult_16_n61
*621 fb_mult1_mult_16_n60
*622 fb_mult1_mult_16_n59
*623 fb_mult1_mult_16_n58
*624 fb_mult1_mult_16_n57
*625 fb_mult1_mult_16_n56
*626 fb_mult1_mult_16_n55
*627 fb_mult1_mult_16_n54
*628 fb_mult1_mult_16_n53
*629 fb_mult1_mult_16_n52
*630 fb_mult1_mult_16_n51
*631 fb_mult1_mult_16_n50
*632 fb_mult1_mult_16_n49
*633 fb_mult1_mult_16_n48
*634 fb_mult1_mult_16_n46
*635 fb_mult1_mult_16_n45
*636 fb_mult1_mult_16_n44
*637 fb_mult1_mult_16_n43
*638 fb_mult1_mult_16_n42
*639 fb_mult1_mult_16_n41
*640 fb_mult1_mult_16_n40
*641 fb_mult1_mult_16_n39
*642 fb_mult1_mult_16_n38
*643 fb_mult1_mult_16_n37
*644 fb_mult1_mult_16_n36
*645 fb_mult1_mult_16_n35
*646 fb_mult1_mult_16_n34
*647 fb_mult1_mult_16_n32
*648 fb_mult1_mult_16_n31
*649 fb_mult1_mult_16_n30
*650 fb_mult1_mult_16_n29
*651 fb_mult1_mult_16_n28
*652 fb_mult1_mult_16_n27
*653 fb_mult1_mult_16_n26
*654 fb_mult1_mult_16_n25
*655 fb_mult1_mult_16_n24
*656 fb_mult1_mult_16_n22
*657 fb_mult1_mult_16_n21
*658 fb_mult1_mult_16_n20
*659 fb_mult1_mult_16_n19
*660 fb_mult1_mult_16_n18
*661 fb_mult1_mult_16_n7
*662 fb_mult1_mult_16_n6
*663 fb_mult1_mult_16_n5
*664 fb_mult1_mult_16_n4
*665 fb_mult1_mult_16_n3
*666 fb_mult1_mult_16_n2
*667 fb_add_add_16_n1
*668 ff_mult0_fract_product_0_
*669 ff_mult0_mult_16_n382
*670 ff_mult0_mult_16_n381
*671 ff_mult0_mult_16_n380
*672 ff_mult0_mult_16_n379
*673 ff_mult0_mult_16_n378
*674 ff_mult0_mult_16_n377
*675 ff_mult0_mult_16_n376
*676 ff_mult0_mult_16_n375
*677 ff_mult0_mult_16_n374
*678 ff_mult0_mult_16_n373
*679 ff_mult0_mult_16_n372
*680 ff_mult0_mult_16_n371
*681 ff_mult0_mult_16_n370
*682 ff_mult0_mult_16_n369
*683 ff_mult0_mult_16_n368
*684 ff_mult0_mult_16_n367
*685 ff_mult0_mult_16_n366
*686 ff_mult0_mult_16_n365
*687 ff_mult0_mult_16_n364
*688 ff_mult0_mult_16_n363
*689 ff_mult0_mult_16_n362
*690 ff_mult0_mult_16_n361
*691 ff_mult0_mult_16_n360
*692 ff_mult0_mult_16_n359
*693 ff_mult0_mult_16_n358
*694 ff_mult0_mult_16_n357
*695 ff_mult0_mult_16_n356
*696 ff_mult0_mult_16_n355
*697 ff_mult0_mult_16_n354
*698 ff_mult0_mult_16_n353
*699 ff_mult0_mult_16_n352
*700 ff_mult0_mult_16_n351
*701 ff_mult0_mult_16_n350
*702 ff_mult0_mult_16_n349
*703 ff_mult0_mult_16_n348
*704 ff_mult0_mult_16_n347
*705 ff_mult0_mult_16_n346
*706 ff_mult0_mult_16_n345
*707 ff_mult0_mult_16_n344
*708 ff_mult0_mult_16_n343
*709 ff_mult0_mult_16_n342
*710 ff_mult0_mult_16_n341
*711 ff_mult0_mult_16_n340
*712 ff_mult0_mult_16_n339
*713 ff_mult0_mult_16_n338
*714 ff_mult0_mult_16_n337
*715 ff_mult0_mult_16_n336
*716 ff_mult0_mult_16_n335
*717 ff_mult0_mult_16_n334
*718 ff_mult0_mult_16_n333
*719 ff_mult0_mult_16_n332
*720 ff_mult0_mult_16_n331
*721 ff_mult0_mult_16_n330
*722 ff_mult0_mult_16_n329
*723 ff_mult0_mult_16_n328
*724 ff_mult0_mult_16_n327
*725 ff_mult0_mult_16_n326
*726 ff_mult0_mult_16_n325
*727 ff_mult0_mult_16_n324
*728 ff_mult0_mult_16_n323
*729 ff_mult0_mult_16_n322
*730 ff_mult0_mult_16_n321
*731 ff_mult0_mult_16_n320
*732 ff_mult0_mult_16_n319
*733 ff_mult0_mult_16_n318
*734 ff_mult0_mult_16_n317
*735 ff_mult0_mult_16_n316
*736 ff_mult0_mult_16_n315
*737 ff_mult0_mult_16_n314
*738 ff_mult0_mult_16_n313
*739 ff_mult0_mult_16_n312
*740 ff_mult0_mult_16_n311
*741 ff_mult0_mult_16_n310
*742 ff_mult0_mult_16_n309
*743 ff_mult0_mult_16_n308
*744 ff_mult0_mult_16_n307
*745 ff_mult0_mult_16_n305
*746 ff_mult0_mult_16_n301
*747 ff_mult0_mult_16_n300
*748 ff_mult0_mult_16_n299
*749 ff_mult0_mult_16_n298
*750 ff_mult0_mult_16_n297
*751 ff_mult0_mult_16_n296
*752 ff_mult0_mult_16_n295
*753 ff_mult0_mult_16_n294
*754 ff_mult0_mult_16_n293
*755 ff_mult0_mult_16_n292
*756 ff_mult0_mult_16_n291
*757 ff_mult0_mult_16_n290
*758 ff_mult0_mult_16_n289
*759 ff_mult0_mult_16_n288
*760 ff_mult0_mult_16_n287
*761 ff_mult0_mult_16_n286
*762 ff_mult0_mult_16_n285
*763 ff_mult0_mult_16_n284
*764 ff_mult0_mult_16_n283
*765 ff_mult0_mult_16_n282
*766 ff_mult0_mult_16_n141
*767 ff_mult0_mult_16_n140
*768 ff_mult0_mult_16_n139
*769 ff_mult0_mult_16_n138
*770 ff_mult0_mult_16_n137
*771 ff_mult0_mult_16_n136
*772 ff_mult0_mult_16_n133
*773 ff_mult0_mult_16_n132
*774 ff_mult0_mult_16_n131
*775 ff_mult0_mult_16_n130
*776 ff_mult0_mult_16_n129
*777 ff_mult0_mult_16_n128
*778 ff_mult0_mult_16_n127
*779 ff_mult0_mult_16_n125
*780 ff_mult0_mult_16_n124
*781 ff_mult0_mult_16_n123
*782 ff_mult0_mult_16_n122
*783 ff_mult0_mult_16_n121
*784 ff_mult0_mult_16_n120
*785 ff_mult0_mult_16_n119
*786 ff_mult0_mult_16_n118
*787 ff_mult0_mult_16_n116
*788 ff_mult0_mult_16_n115
*789 ff_mult0_mult_16_n114
*790 ff_mult0_mult_16_n112
*791 ff_mult0_mult_16_n111
*792 ff_mult0_mult_16_n110
*793 ff_mult0_mult_16_n109
*794 ff_mult0_mult_16_n107
*795 ff_mult0_mult_16_n105
*796 ff_mult0_mult_16_n104
*797 ff_mult0_mult_16_n103
*798 ff_mult0_mult_16_n102
*799 ff_mult0_mult_16_n101
*800 ff_mult0_mult_16_n100
*801 ff_mult0_mult_16_n96
*802 ff_mult0_mult_16_n95
*803 ff_mult0_mult_16_n94
*804 ff_mult0_mult_16_n79
*805 ff_mult0_mult_16_n78
*806 ff_mult0_mult_16_n77
*807 ff_mult0_mult_16_n76
*808 ff_mult0_mult_16_n75
*809 ff_mult0_mult_16_n74
*810 ff_mult0_mult_16_n73
*811 ff_mult0_mult_16_n72
*812 ff_mult0_mult_16_n71
*813 ff_mult0_mult_16_n70
*814 ff_mult0_mult_16_n69
*815 ff_mult0_mult_16_n68
*816 ff_mult0_mult_16_n67
*817 ff_mult0_mult_16_n66
*818 ff_mult0_mult_16_n65
*819 ff_mult0_mult_16_n64
*820 ff_mult0_mult_16_n63
*821 ff_mult0_mult_16_n62
*822 ff_mult0_mult_16_n61
*823 ff_mult0_mult_16_n60
*824 ff_mult0_mult_16_n59
*825 ff_mult0_mult_16_n58
*826 ff_mult0_mult_16_n57
*827 ff_mult0_mult_16_n56
*828 ff_mult0_mult_16_n55
*829 ff_mult0_mult_16_n54
*830 ff_mult0_mult_16_n53
*831 ff_mult0_mult_16_n52
*832 ff_mult0_mult_16_n51
*833 ff_mult0_mult_16_n50
*834 ff_mult0_mult_16_n49
*835 ff_mult0_mult_16_n48
*836 ff_mult0_mult_16_n46
*837 ff_mult0_mult_16_n45
*838 ff_mult0_mult_16_n44
*839 ff_mult0_mult_16_n43
*840 ff_mult0_mult_16_n42
*841 ff_mult0_mult_16_n41
*842 ff_mult0_mult_16_n40
*843 ff_mult0_mult_16_n39
*844 ff_mult0_mult_16_n38
*845 ff_mult0_mult_16_n37
*846 ff_mult0_mult_16_n36
*847 ff_mult0_mult_16_n35
*848 ff_mult0_mult_16_n34
*849 ff_mult0_mult_16_n32
*850 ff_mult0_mult_16_n31
*851 ff_mult0_mult_16_n30
*852 ff_mult0_mult_16_n29
*853 ff_mult0_mult_16_n28
*854 ff_mult0_mult_16_n27
*855 ff_mult0_mult_16_n26
*856 ff_mult0_mult_16_n25
*857 ff_mult0_mult_16_n24
*858 ff_mult0_mult_16_n22
*859 ff_mult0_mult_16_n21
*860 ff_mult0_mult_16_n20
*861 ff_mult0_mult_16_n19
*862 ff_mult0_mult_16_n18
*863 ff_mult0_mult_16_n7
*864 ff_mult0_mult_16_n6
*865 ff_mult0_mult_16_n5
*866 ff_mult0_mult_16_n4
*867 ff_mult0_mult_16_n3
*868 ff_mult0_mult_16_n2
*869 ff_mult1_fract_product_0_
*870 ff_mult1_mult_16_n382
*871 ff_mult1_mult_16_n381
*872 ff_mult1_mult_16_n380
*873 ff_mult1_mult_16_n379
*874 ff_mult1_mult_16_n378
*875 ff_mult1_mult_16_n377
*876 ff_mult1_mult_16_n376
*877 ff_mult1_mult_16_n375
*878 ff_mult1_mult_16_n374
*879 ff_mult1_mult_16_n373
*880 ff_mult1_mult_16_n372
*881 ff_mult1_mult_16_n371
*882 ff_mult1_mult_16_n370
*883 ff_mult1_mult_16_n369
*884 ff_mult1_mult_16_n368
*885 ff_mult1_mult_16_n367
*886 ff_mult1_mult_16_n366
*887 ff_mult1_mult_16_n365
*888 ff_mult1_mult_16_n364
*889 ff_mult1_mult_16_n363
*890 ff_mult1_mult_16_n362
*891 ff_mult1_mult_16_n361
*892 ff_mult1_mult_16_n360
*893 ff_mult1_mult_16_n359
*894 ff_mult1_mult_16_n358
*895 ff_mult1_mult_16_n357
*896 ff_mult1_mult_16_n356
*897 ff_mult1_mult_16_n355
*898 ff_mult1_mult_16_n354
*899 ff_mult1_mult_16_n353
*900 ff_mult1_mult_16_n352
*901 ff_mult1_mult_16_n351
*902 ff_mult1_mult_16_n350
*903 ff_mult1_mult_16_n349
*904 ff_mult1_mult_16_n348
*905 ff_mult1_mult_16_n347
*906 ff_mult1_mult_16_n346
*907 ff_mult1_mult_16_n345
*908 ff_mult1_mult_16_n344
*909 ff_mult1_mult_16_n343
*910 ff_mult1_mult_16_n342
*911 ff_mult1_mult_16_n341
*912 ff_mult1_mult_16_n340
*913 ff_mult1_mult_16_n339
*914 ff_mult1_mult_16_n338
*915 ff_mult1_mult_16_n337
*916 ff_mult1_mult_16_n336
*917 ff_mult1_mult_16_n335
*918 ff_mult1_mult_16_n334
*919 ff_mult1_mult_16_n333
*920 ff_mult1_mult_16_n332
*921 ff_mult1_mult_16_n331
*922 ff_mult1_mult_16_n330
*923 ff_mult1_mult_16_n329
*924 ff_mult1_mult_16_n328
*925 ff_mult1_mult_16_n327
*926 ff_mult1_mult_16_n326
*927 ff_mult1_mult_16_n325
*928 ff_mult1_mult_16_n324
*929 ff_mult1_mult_16_n323
*930 ff_mult1_mult_16_n322
*931 ff_mult1_mult_16_n321
*932 ff_mult1_mult_16_n320
*933 ff_mult1_mult_16_n319
*934 ff_mult1_mult_16_n318
*935 ff_mult1_mult_16_n317
*936 ff_mult1_mult_16_n316
*937 ff_mult1_mult_16_n315
*938 ff_mult1_mult_16_n314
*939 ff_mult1_mult_16_n313
*940 ff_mult1_mult_16_n312
*941 ff_mult1_mult_16_n311
*942 ff_mult1_mult_16_n310
*943 ff_mult1_mult_16_n309
*944 ff_mult1_mult_16_n308
*945 ff_mult1_mult_16_n307
*946 ff_mult1_mult_16_n305
*947 ff_mult1_mult_16_n301
*948 ff_mult1_mult_16_n300
*949 ff_mult1_mult_16_n299
*950 ff_mult1_mult_16_n298
*951 ff_mult1_mult_16_n297
*952 ff_mult1_mult_16_n296
*953 ff_mult1_mult_16_n295
*954 ff_mult1_mult_16_n294
*955 ff_mult1_mult_16_n293
*956 ff_mult1_mult_16_n292
*957 ff_mult1_mult_16_n291
*958 ff_mult1_mult_16_n290
*959 ff_mult1_mult_16_n289
*960 ff_mult1_mult_16_n288
*961 ff_mult1_mult_16_n287
*962 ff_mult1_mult_16_n286
*963 ff_mult1_mult_16_n285
*964 ff_mult1_mult_16_n284
*965 ff_mult1_mult_16_n283
*966 ff_mult1_mult_16_n282
*967 ff_mult1_mult_16_n141
*968 ff_mult1_mult_16_n140
*969 ff_mult1_mult_16_n139
*970 ff_mult1_mult_16_n138
*971 ff_mult1_mult_16_n137
*972 ff_mult1_mult_16_n136
*973 ff_mult1_mult_16_n133
*974 ff_mult1_mult_16_n132
*975 ff_mult1_mult_16_n131
*976 ff_mult1_mult_16_n130
*977 ff_mult1_mult_16_n129
*978 ff_mult1_mult_16_n128
*979 ff_mult1_mult_16_n127
*980 ff_mult1_mult_16_n125
*981 ff_mult1_mult_16_n124
*982 ff_mult1_mult_16_n123
*983 ff_mult1_mult_16_n122
*984 ff_mult1_mult_16_n121
*985 ff_mult1_mult_16_n120
*986 ff_mult1_mult_16_n119
*987 ff_mult1_mult_16_n118
*988 ff_mult1_mult_16_n116
*989 ff_mult1_mult_16_n115
*990 ff_mult1_mult_16_n114
*991 ff_mult1_mult_16_n112
*992 ff_mult1_mult_16_n111
*993 ff_mult1_mult_16_n110
*994 ff_mult1_mult_16_n109
*995 ff_mult1_mult_16_n107
*996 ff_mult1_mult_16_n105
*997 ff_mult1_mult_16_n104
*998 ff_mult1_mult_16_n103
*999 ff_mult1_mult_16_n102
*1000 ff_mult1_mult_16_n101
*1001 ff_mult1_mult_16_n100
*1002 ff_mult1_mult_16_n96
*1003 ff_mult1_mult_16_n95
*1004 ff_mult1_mult_16_n94
*1005 ff_mult1_mult_16_n79
*1006 ff_mult1_mult_16_n78
*1007 ff_mult1_mult_16_n77
*1008 ff_mult1_mult_16_n76
*1009 ff_mult1_mult_16_n75
*1010 ff_mult1_mult_16_n74
*1011 ff_mult1_mult_16_n73
*1012 ff_mult1_mult_16_n72
*1013 ff_mult1_mult_16_n71
*1014 ff_mult1_mult_16_n70
*1015 ff_mult1_mult_16_n69
*1016 ff_mult1_mult_16_n68
*1017 ff_mult1_mult_16_n67
*1018 ff_mult1_mult_16_n66
*1019 ff_mult1_mult_16_n65
*1020 ff_mult1_mult_16_n64
*1021 ff_mult1_mult_16_n63
*1022 ff_mult1_mult_16_n62
*1023 ff_mult1_mult_16_n61
*1024 ff_mult1_mult_16_n60
*1025 ff_mult1_mult_16_n59
*1026 ff_mult1_mult_16_n58
*1027 ff_mult1_mult_16_n57
*1028 ff_mult1_mult_16_n56
*1029 ff_mult1_mult_16_n55
*1030 ff_mult1_mult_16_n54
*1031 ff_mult1_mult_16_n53
*1032 ff_mult1_mult_16_n52
*1033 ff_mult1_mult_16_n51
*1034 ff_mult1_mult_16_n50
*1035 ff_mult1_mult_16_n49
*1036 ff_mult1_mult_16_n48
*1037 ff_mult1_mult_16_n46
*1038 ff_mult1_mult_16_n45
*1039 ff_mult1_mult_16_n44
*1040 ff_mult1_mult_16_n43
*1041 ff_mult1_mult_16_n42
*1042 ff_mult1_mult_16_n41
*1043 ff_mult1_mult_16_n40
*1044 ff_mult1_mult_16_n39
*1045 ff_mult1_mult_16_n38
*1046 ff_mult1_mult_16_n37
*1047 ff_mult1_mult_16_n36
*1048 ff_mult1_mult_16_n35
*1049 ff_mult1_mult_16_n34
*1050 ff_mult1_mult_16_n32
*1051 ff_mult1_mult_16_n31
*1052 ff_mult1_mult_16_n30
*1053 ff_mult1_mult_16_n29
*1054 ff_mult1_mult_16_n28
*1055 ff_mult1_mult_16_n27
*1056 ff_mult1_mult_16_n26
*1057 ff_mult1_mult_16_n25
*1058 ff_mult1_mult_16_n24
*1059 ff_mult1_mult_16_n22
*1060 ff_mult1_mult_16_n21
*1061 ff_mult1_mult_16_n20
*1062 ff_mult1_mult_16_n19
*1063 ff_mult1_mult_16_n18
*1064 ff_mult1_mult_16_n7
*1065 ff_mult1_mult_16_n6
*1066 ff_mult1_mult_16_n5
*1067 ff_mult1_mult_16_n4
*1068 ff_mult1_mult_16_n3
*1069 ff_mult1_mult_16_n2
*1070 ff_add_add_16_n2
*1071 w_add_add_16_n1
*1072 y_mult_fract_product_0_
*1073 y_mult_mult_16_n377
*1074 y_mult_mult_16_n376
*1075 y_mult_mult_16_n375
*1076 y_mult_mult_16_n374
*1077 y_mult_mult_16_n373
*1078 y_mult_mult_16_n372
*1079 y_mult_mult_16_n371
*1080 y_mult_mult_16_n370
*1081 y_mult_mult_16_n369
*1082 y_mult_mult_16_n368
*1083 y_mult_mult_16_n367
*1084 y_mult_mult_16_n366
*1085 y_mult_mult_16_n365
*1086 y_mult_mult_16_n364
*1087 y_mult_mult_16_n363
*1088 y_mult_mult_16_n362
*1089 y_mult_mult_16_n361
*1090 y_mult_mult_16_n360
*1091 y_mult_mult_16_n359
*1092 y_mult_mult_16_n358
*1093 y_mult_mult_16_n357
*1094 y_mult_mult_16_n356
*1095 y_mult_mult_16_n355
*1096 y_mult_mult_16_n354
*1097 y_mult_mult_16_n353
*1098 y_mult_mult_16_n352
*1099 y_mult_mult_16_n351
*1100 y_mult_mult_16_n350
*1101 y_mult_mult_16_n349
*1102 y_mult_mult_16_n348
*1103 y_mult_mult_16_n347
*1104 y_mult_mult_16_n346
*1105 y_mult_mult_16_n345
*1106 y_mult_mult_16_n344
*1107 y_mult_mult_16_n343
*1108 y_mult_mult_16_n342
*1109 y_mult_mult_16_n341
*1110 y_mult_mult_16_n340
*1111 y_mult_mult_16_n339
*1112 y_mult_mult_16_n338
*1113 y_mult_mult_16_n337
*1114 y_mult_mult_16_n336
*1115 y_mult_mult_16_n335
*1116 y_mult_mult_16_n334
*1117 y_mult_mult_16_n333
*1118 y_mult_mult_16_n332
*1119 y_mult_mult_16_n331
*1120 y_mult_mult_16_n330
*1121 y_mult_mult_16_n329
*1122 y_mult_mult_16_n328
*1123 y_mult_mult_16_n327
*1124 y_mult_mult_16_n326
*1125 y_mult_mult_16_n325
*1126 y_mult_mult_16_n324
*1127 y_mult_mult_16_n323
*1128 y_mult_mult_16_n322
*1129 y_mult_mult_16_n321
*1130 y_mult_mult_16_n320
*1131 y_mult_mult_16_n319
*1132 y_mult_mult_16_n318
*1133 y_mult_mult_16_n317
*1134 y_mult_mult_16_n316
*1135 y_mult_mult_16_n315
*1136 y_mult_mult_16_n314
*1137 y_mult_mult_16_n313
*1138 y_mult_mult_16_n312
*1139 y_mult_mult_16_n311
*1140 y_mult_mult_16_n310
*1141 y_mult_mult_16_n309
*1142 y_mult_mult_16_n308
*1143 y_mult_mult_16_n307
*1144 y_mult_mult_16_n306
*1145 y_mult_mult_16_n305
*1146 y_mult_mult_16_n304
*1147 y_mult_mult_16_n303
*1148 y_mult_mult_16_n302
*1149 y_mult_mult_16_n301
*1150 y_mult_mult_16_n300
*1151 y_mult_mult_16_n299
*1152 y_mult_mult_16_n298
*1153 y_mult_mult_16_n297
*1154 y_mult_mult_16_n296
*1155 y_mult_mult_16_n295
*1156 y_mult_mult_16_n294
*1157 y_mult_mult_16_n293
*1158 y_mult_mult_16_n292
*1159 y_mult_mult_16_n291
*1160 y_mult_mult_16_n290
*1161 y_mult_mult_16_n289
*1162 y_mult_mult_16_n288
*1163 y_mult_mult_16_n287
*1164 y_mult_mult_16_n286
*1165 y_mult_mult_16_n285
*1166 y_mult_mult_16_n284
*1167 y_mult_mult_16_n283
*1168 y_mult_mult_16_n282
*1169 y_mult_mult_16_n281
*1170 y_mult_mult_16_n280
*1171 y_mult_mult_16_n279
*1172 y_mult_mult_16_n278
*1173 y_mult_mult_16_n277
*1174 y_mult_mult_16_n141
*1175 y_mult_mult_16_n140
*1176 y_mult_mult_16_n139
*1177 y_mult_mult_16_n138
*1178 y_mult_mult_16_n137
*1179 y_mult_mult_16_n136
*1180 y_mult_mult_16_n133
*1181 y_mult_mult_16_n132
*1182 y_mult_mult_16_n131
*1183 y_mult_mult_16_n130
*1184 y_mult_mult_16_n129
*1185 y_mult_mult_16_n128
*1186 y_mult_mult_16_n127
*1187 y_mult_mult_16_n125
*1188 y_mult_mult_16_n124
*1189 y_mult_mult_16_n123
*1190 y_mult_mult_16_n122
*1191 y_mult_mult_16_n121
*1192 y_mult_mult_16_n120
*1193 y_mult_mult_16_n119
*1194 y_mult_mult_16_n118
*1195 y_mult_mult_16_n116
*1196 y_mult_mult_16_n115
*1197 y_mult_mult_16_n114
*1198 y_mult_mult_16_n112
*1199 y_mult_mult_16_n111
*1200 y_mult_mult_16_n110
*1201 y_mult_mult_16_n109
*1202 y_mult_mult_16_n107
*1203 y_mult_mult_16_n105
*1204 y_mult_mult_16_n104
*1205 y_mult_mult_16_n103
*1206 y_mult_mult_16_n102
*1207 y_mult_mult_16_n101
*1208 y_mult_mult_16_n100
*1209 y_mult_mult_16_n96
*1210 y_mult_mult_16_n95
*1211 y_mult_mult_16_n94
*1212 y_mult_mult_16_n79
*1213 y_mult_mult_16_n78
*1214 y_mult_mult_16_n77
*1215 y_mult_mult_16_n76
*1216 y_mult_mult_16_n75
*1217 y_mult_mult_16_n74
*1218 y_mult_mult_16_n73
*1219 y_mult_mult_16_n72
*1220 y_mult_mult_16_n71
*1221 y_mult_mult_16_n70
*1222 y_mult_mult_16_n69
*1223 y_mult_mult_16_n68
*1224 y_mult_mult_16_n67
*1225 y_mult_mult_16_n66
*1226 y_mult_mult_16_n65
*1227 y_mult_mult_16_n64
*1228 y_mult_mult_16_n63
*1229 y_mult_mult_16_n62
*1230 y_mult_mult_16_n61